pcf
* control data
restart estimation
146 7306 2 0 3
1 2 double point 1 0 0
10.0 5.0 0.5 0.005 20
5.0 5.0 0.005 0
0.01
50 0.01 8 8 0.01 8
1 1 1
* parameter groups
paramGroup1 relative 0.01 0.001 switch 2.0 parabolic
paramGroup2 absolute 0.05 0.001 switch 2.0 parabolic
* parameter data
ttpi none relative 1.0 0.0 2.0 paramGroup1 1.0000 0.0000 1
lp none relative 0.9 0.8 1.0 paramGroup1 1.0000 0.0000 1
cevpam fixed relative 0.5 0.5 0.5 paramGroup1 1.0000 0.0000 1
cevpph fixed relative 45 45 45 paramGroup1 1.0000 0.0000 1
rrcs3 fixed relative 0.0002 0.0002 0.0002 paramGroup1 1.0000 0.0000 1
damp none relative 0.255 0.01 0.95 paramGroup1 1.0000 0.0000 1
rivvel none relative 0.75 0.3 1 paramGroup1 1.0000 0.0000 1
tcalt fixed relative 0.6 0.6 0.6 paramGroup1 1.0000 0.0000 1
qmean fixed relative 25 25 25 paramGroup1 1.0000 0.0000 1
epotdist fixed relative 3 3 3 paramGroup1 1.0000 0.0000 1
gldepi none relative 3.0 1.0 10.0 paramGroup1 1.0000 0.0000 1
gratp none relative 2.25 2 2.5 paramGroup1 1.0000 0.0000 1
gratk none relative 1.0 0.05 2.0 paramGroup1 1.0000 0.0000 1
sdnsnew fixed relative 0.145 0.1 0.19 paramGroup1 1.0000 0.0000 1
snowdensdt fixed relative 0.0014 0.0014 0.0014 paramGroup1 1.0000 0.0000 1
ttmp_10 fixed relative 1.0 0.0 2.0 paramGroup1 1.0000 0.0000 1
ttmp_11 none relative 1.0 0.0 2.0 paramGroup1 1.0000 0.0000 1
ttmp_12 fixed relative 1.0 0.0 2.0 paramGroup1 1.0000 0.0000 1
ttmp_13 none relative 1.0 0.0 2.0 paramGroup1 1.0000 0.0000 1
ttmp_14 none relative 1.0 -1.0 2.0 paramGroup2 1.0000 0.0000 1
ttmp_15 none relative 1.0 0.0 2.0 paramGroup1 1.0000 0.0000 1
ttmp_16 none relative 1.0 0.0 2.0 paramGroup1 1.0000 0.0000 1
ttmp_17 none relative 1.0 -2.0 2.0 paramGroup2 1.0000 0.0000 1
cmlt_10 fixed relative 2.6 0.2 5.0 paramGroup1 1.0000 0.0000 1
cmlt_11 none relative 2.6 0.2 8.0 paramGroup1 1.0000 0.0000 1
cmlt_12 fixed relative 2.6 0.2 5.0 paramGroup1 1.0000 0.0000 1
cmlt_13 none relative 2.6 0.2 5.0 paramGroup1 1.0000 0.0000 1
cmlt_14 none relative 2.6 0.2 5.0 paramGroup1 1.0000 0.0000 1
cmlt_15 none relative 2.6 0.2 5.0 paramGroup1 1.0000 0.0000 1
cmlt_16 none relative 2.6 0.2 5.0 paramGroup1 1.0000 0.0000 1
cmlt_17 none relative 2.6 0.2 8.0 paramGroup1 1.0000 0.0000 1
cevp_10 fixed relative 0.15 0.1 0.2 paramGroup1 1.0000 0.0000 1
cevp_11 none relative 0.15 0.1 0.2 paramGroup1 1.0000 0.0000 1
cevp_12 fixed relative 0.15 0.1 0.2 paramGroup1 1.0000 0.0000 1
cevp_13 none relative 0.15 0.1 0.2 paramGroup1 1.0000 0.0000 1
cevp_14 none relative 0.15 0.1 0.2 paramGroup1 1.0000 0.0000 1
cevp_15 none relative 0.15 0.1 0.2 paramGroup1 1.0000 0.0000 1
cevp_16 none relative 0.15 0.1 0.2 paramGroup1 1.0000 0.0000 1
cevp_17 none relative 0.15 0.1 0.2 paramGroup1 1.0000 0.0000 1
srrcs_10 fixed relative 0.15 0.1 0.2 paramGroup1 1.0000 0.0000 1
srrcs_11 none relative 0.15 0.1 0.2 paramGroup1 1.0000 0.0000 1
srrcs_12 fixed relative 0.15 0.1 0.2 paramGroup1 1.0000 0.0000 1
srrcs_13 none relative 0.15 0.1 0.2 paramGroup1 1.0000 0.0000 1
srrcs_14 none relative 0.15 0.1 0.2 paramGroup1 1.0000 0.0000 1
srrcs_15 none relative 0.15 0.1 0.2 paramGroup1 1.0000 0.0000 1
srrcs_16 none relative 0.15 0.1 0.2 paramGroup1 1.0000 0.0000 1
srrcs_17 none relative 0.15 0.1 0.2 paramGroup1 1.0000 0.0000 1
frost_10 fixed relative 2.0 2.0 2.0 paramGroup1 1.0000 0.0000 1
frost_11 fixed relative 2.0 2.0 2.0 paramGroup1 1.0000 0.0000 1
frost_12 fixed relative 2.0 2.0 2.0 paramGroup1 1.0000 0.0000 1
frost_13 fixed relative 2.0 2.0 2.0 paramGroup1 1.0000 0.0000 1
frost_14 fixed relative 2.0 2.0 2.0 paramGroup1 1.0000 0.0000 1
frost_15 fixed relative 2.0 2.0 2.0 paramGroup1 1.0000 0.0000 1
frost_16 fixed relative 2.0 2.0 2.0 paramGroup1 1.0000 0.0000 1
frost_17 fixed relative 2.0 2.0 2.0 paramGroup1 1.0000 0.0000 1
rrcs1_100 fixed relative 0.375 0.05 0.7 paramGroup1 1.0000 0.0000 1
rrcs1_101 none relative 0.375 0.05 0.7 paramGroup1 1.0000 0.0000 1
rrcs1_102 none relative 0.375 0.05 0.7 paramGroup1 1.0000 0.0000 1
rrcs1_103 none relative 0.375 0.05 0.7 paramGroup1 1.0000 0.0000 1
rrcs1_104 none relative 0.375 0.05 0.7 paramGroup1 1.0000 0.0000 1
rrcs1_105 none relative 0.375 0.05 1.0 paramGroup1 1.0000 0.0000 1
rrcs1_106 none relative 0.375 0.05 0.7 paramGroup1 1.0000 0.0000 1
rrcs2_100 fixed relative 0.0255 0.001 0.05 paramGroup1 1.0000 0.0000 1
rrcs2_101 none relative 0.0255 0.001 0.05 paramGroup1 1.0000 0.0000 1
rrcs2_102 none relative 0.0255 0.001 0.05 paramGroup1 1.0000 0.0000 1
rrcs2_103 none relative 0.0255 0.001 0.05 paramGroup1 1.0000 0.0000 1
rrcs2_104 none relative 0.0255 0.001 0.05 paramGroup1 1.0000 0.0000 1
rrcs2_105 none relative 0.0255 0.001 0.05 paramGroup1 1.0000 0.0000 1
rrcs2_106 none relative 0.0255 0.001 0.05 paramGroup1 1.0000 0.0000 1
trrcs_100 fixed relative 0.2 0.1 0.3 paramGroup1 1.0000 0.0000 1
trrcs_101 fixed relative 0.2 0.1 0.3 paramGroup1 1.0000 0.0000 1
trrcs_102 fixed relative 0.2 0.1 0.3 paramGroup1 1.0000 0.0000 1
trrcs_103 fixed relative 0.2 0.1 0.3 paramGroup1 1.0000 0.0000 1
trrcs_104 fixed relative 0.2 0.1 0.3 paramGroup1 1.0000 0.0000 1
trrcs_105 fixed relative 0.2 0.1 0.3 paramGroup1 1.0000 0.0000 1
trrcs_106 fixed relative 0.2 0.1 0.3 paramGroup1 1.0000 0.0000 1
mperc1_100 fixed relative 65 30 100 paramGroup1 1.0000 0.0000 1
mperc1_101 fixed relative 65 30 100 paramGroup1 1.0000 0.0000 1
mperc1_102 fixed relative 65 30 100 paramGroup1 1.0000 0.0000 1
mperc1_103 fixed relative 65 30 100 paramGroup1 1.0000 0.0000 1
mperc1_104 fixed relative 65 30 100 paramGroup1 1.0000 0.0000 1
mperc1_105 fixed relative 65 30 100 paramGroup1 1.0000 0.0000 1
mperc1_106 fixed relative 65 30 100 paramGroup1 1.0000 0.0000 1
mperc2_100 fixed relative 65 30 100 paramGroup1 1.0000 0.0000 1
mperc2_101 fixed relative 65 30 100 paramGroup1 1.0000 0.0000 1
mperc2_102 fixed relative 65 30 100 paramGroup1 1.0000 0.0000 1
mperc2_103 fixed relative 65 30 100 paramGroup1 1.0000 0.0000 1
mperc2_104 fixed relative 65 30 100 paramGroup1 1.0000 0.0000 1
mperc2_105 fixed relative 65 30 100 paramGroup1 1.0000 0.0000 1
mperc2_106 fixed relative 65 30 100 paramGroup1 1.0000 0.0000 1
sfrost_100 fixed relative 1.0 1.0 1.0 paramGroup1 1.0000 0.0000 1
sfrost_101 fixed relative 1.0 1.0 1.0 paramGroup1 1.0000 0.0000 1
sfrost_102 fixed relative 1.0 1.0 1.0 paramGroup1 1.0000 0.0000 1
sfrost_103 fixed relative 1.0 1.0 1.0 paramGroup1 1.0000 0.0000 1
sfrost_104 fixed relative 1.0 1.0 1.0 paramGroup1 1.0000 0.0000 1
sfrost_105 fixed relative 1.0 1.0 1.0 paramGroup1 1.0000 0.0000 1
sfrost_106 fixed relative 1.0 1.0 1.0 paramGroup1 1.0000 0.0000 1
macrate_100 fixed relative 0.2 0.1 0.3 paramGroup1 1.0000 0.0000 1
macrate_101 none relative 0.2 0.1 0.3 paramGroup1 1.0000 0.0000 1
macrate_102 none relative 0.2 0.1 0.3 paramGroup1 1.0000 0.0000 1
macrate_103 none relative 0.2 0.1 0.3 paramGroup1 1.0000 0.0000 1
macrate_104 none relative 0.2 0.1 0.3 paramGroup1 1.0000 0.0000 1
macrate_105 none relative 0.2 0.1 0.3 paramGroup1 1.0000 0.0000 1
macrate_106 none relative 0.2 0.1 0.3 paramGroup1 1.0000 0.0000 1
mactrinf_100 fixed relative 30 10 50 paramGroup1 1.0000 0.0000 1
mactrinf_101 none relative 30 10 50 paramGroup1 1.0000 0.0000 1
mactrinf_102 none relative 30 10 50 paramGroup1 1.0000 0.0000 1
mactrinf_103 none relative 30 10 50 paramGroup1 1.0000 0.0000 1
mactrinf_104 none relative 30 10 50 paramGroup1 1.0000 0.0000 1
mactrinf_105 none relative 30 10 50 paramGroup1 1.0000 0.0000 1
mactrinf_106 none relative 30 10 50 paramGroup1 1.0000 0.0000 1
mactrsm_100 fixed relative 0.675 0.5 0.85 paramGroup1 1.0000 0.0000 1
mactrsm_101 fixed relative 0.675 0.5 0.85 paramGroup1 1.0000 0.0000 1
mactrsm_102 fixed relative 0.675 0.5 0.85 paramGroup1 1.0000 0.0000 1
mactrsm_103 fixed relative 0.675 0.5 0.85 paramGroup1 1.0000 0.0000 1
mactrsm_104 fixed relative 0.675 0.5 0.85 paramGroup1 1.0000 0.0000 1
mactrsm_105 fixed relative 0.675 0.5 0.85 paramGroup1 1.0000 0.0000 1
mactrsm_106 fixed relative 0.675 0.5 0.85 paramGroup1 1.0000 0.0000 1
srrate_100 fixed relative 0.15 0.1 0.2 paramGroup1 1.0000 0.0000 1
srrate_101 none relative 0.15 0.1 0.2 paramGroup1 1.0000 0.0000 1
srrate_102 none relative 0.15 0.1 0.2 paramGroup1 1.0000 0.0000 1
srrate_103 none relative 0.15 0.1 0.2 paramGroup1 1.0000 0.0000 1
srrate_104 none relative 0.15 0.1 0.2 paramGroup1 1.0000 0.0000 1
srrate_105 none relative 0.15 0.1 0.2 paramGroup1 1.0000 0.0000 1
srrate_106 none relative 0.15 0.1 0.2 paramGroup1 1.0000 0.0000 1
wcwp_100 fixed relative 0.07 0.04 0.1 paramGroup1 1.0000 0.0000 1
wcwp_101 none relative 0.07 0.04 0.1 paramGroup1 1.0000 0.0000 1
wcwp_102 none relative 0.07 0.04 0.1 paramGroup1 1.0000 0.0000 1
wcwp_103 none relative 0.07 0.04 0.1 paramGroup1 1.0000 0.0000 1
wcwp_104 none relative 0.07 0.04 0.1 paramGroup1 1.0000 0.0000 1
wcwp_105 none relative 0.07 0.04 0.1 paramGroup1 1.0000 0.0000 1
wcwp_106 none relative 0.07 0.04 0.1 paramGroup1 1.0000 0.0000 1
wcfc_100 fixed relative 0.25 0.1 0.4 paramGroup1 1.0000 0.0000 1
wcfc_101 none relative 0.25 0.1 0.4 paramGroup1 1.0000 0.0000 1
wcfc_102 none relative 0.25 0.1 0.5 paramGroup1 1.0000 0.0000 1
wcfc_103 none relative 0.25 0.1 0.4 paramGroup1 1.0000 0.0000 1
wcfc_104 none relative 0.25 0.1 0.4 paramGroup1 1.0000 0.0000 1
wcfc_105 none relative 0.25 0.1 0.4 paramGroup1 1.0000 0.0000 1
wcfc_106 none relative 0.25 0.1 0.4 paramGroup1 1.0000 0.0000 1
wcep_100 fixed relative 0.055 0.01 0.1 paramGroup1 1.0000 0.0000 1
wcep_101 none relative 0.055 0.01 0.1 paramGroup1 1.0000 0.0000 1
wcep_102 none relative 0.055 0.01 0.1 paramGroup1 1.0000 0.0000 1
wcep_103 none relative 0.055 0.01 0.1 paramGroup1 1.0000 0.0000 1
wcep_104 none relative 0.055 0.01 0.35 paramGroup1 1.0000 0.0000 1
wcep_105 none relative 0.055 0.01 0.35 paramGroup1 1.0000 0.0000 1
wcep_106 none relative 0.055 0.01 0.1 paramGroup1 1.0000 0.0000 1
* observation groups
warmup_obs
calib_obs
valid_obs
* observation data
o18266 4.98 0.0 warmup_obs
o18267 4.76 0.0 warmup_obs
o18268 4.7 0.0 warmup_obs
o18269 4.53 0.0 warmup_obs
o18270 4.42 0.0 warmup_obs
o18271 4.29 0.0 warmup_obs
o18272 4.09 0.0 warmup_obs
o18273 3.99 0.0 warmup_obs
o18274 3.92 0.0 warmup_obs
o18275 3.82 0.0 warmup_obs
o18276 3.73 0.0 warmup_obs
o18277 3.68 0.0 warmup_obs
o18278 3.61 0.0 warmup_obs
o18279 3.52 0.0 warmup_obs
o18280 3.4 0.0 warmup_obs
o18281 3.33 0.0 warmup_obs
o18282 3.28 0.0 warmup_obs
o18283 3.2 0.0 warmup_obs
o18284 3.18 0.0 warmup_obs
o18285 3.1 0.0 warmup_obs
o18286 3.08 0.0 warmup_obs
o18287 2.98 0.0 warmup_obs
o18288 2.93 0.0 warmup_obs
o18289 2.86 0.0 warmup_obs
o18290 2.8 0.0 warmup_obs
o18291 2.84 0.0 warmup_obs
o18292 2.85 0.0 warmup_obs
o18293 2.85 0.0 warmup_obs
o18294 2.9 0.0 warmup_obs
o18295 2.89 0.0 warmup_obs
o18296 2.94 0.0 warmup_obs
o18297 3.0 0.0 warmup_obs
o18298 3.0 0.0 warmup_obs
o18299 3.0 0.0 warmup_obs
o18300 3.0 0.0 warmup_obs
o18301 3.0 0.0 warmup_obs
o18302 2.94 0.0 warmup_obs
o18303 2.95 0.0 warmup_obs
o18304 2.92 0.0 warmup_obs
o18305 3.05 0.0 warmup_obs
o18306 3.31 0.0 warmup_obs
o18307 3.99 0.0 warmup_obs
o18308 5.04 0.0 warmup_obs
o18309 6.22 0.0 warmup_obs
o18310 7.44 0.0 warmup_obs
o18311 8.18 0.0 warmup_obs
o18312 8.3 0.0 warmup_obs
o18313 8.28 0.0 warmup_obs
o18314 8.2 0.0 warmup_obs
o18315 8.11 0.0 warmup_obs
o18316 8.0 0.0 warmup_obs
o18317 7.9 0.0 warmup_obs
o18318 7.8 0.0 warmup_obs
o18319 7.65 0.0 warmup_obs
o18320 7.4 0.0 warmup_obs
o18321 7.1 0.0 warmup_obs
o18322 7.1 0.0 warmup_obs
o18323 0.0 0.0 warmup_obs
o18324 0.0 0.0 warmup_obs
o18325 6.4 0.0 warmup_obs
o18326 6.3 0.0 warmup_obs
o18327 6.17 0.0 warmup_obs
o18328 6.0 0.0 warmup_obs
o18329 5.75 0.0 warmup_obs
o18330 5.7 0.0 warmup_obs
o18331 5.58 0.0 warmup_obs
o18332 5.4 0.0 warmup_obs
o18333 5.4 0.0 warmup_obs
o18334 5.19 0.0 warmup_obs
o18335 5.0 0.0 warmup_obs
o18336 4.8 0.0 warmup_obs
o18337 4.78 0.0 warmup_obs
o18338 4.7 0.0 warmup_obs
o18339 4.6 0.0 warmup_obs
o18340 4.6 0.0 warmup_obs
o18341 4.4 0.0 warmup_obs
o18342 4.4 0.0 warmup_obs
o18343 4.4 0.0 warmup_obs
o18344 4.48 0.0 warmup_obs
o18345 4.6 0.0 warmup_obs
o18346 4.66 0.0 warmup_obs
o18347 4.7 0.0 warmup_obs
o18348 4.7 0.0 warmup_obs
o18349 4.66 0.0 warmup_obs
o18350 4.6 0.0 warmup_obs
o18351 4.6 0.0 warmup_obs
o18352 4.6 0.0 warmup_obs
o18353 4.68 0.0 warmup_obs
o18354 5.07 0.0 warmup_obs
o18355 5.71 0.0 warmup_obs
o18356 6.6 0.0 warmup_obs
o18357 7.63 0.0 warmup_obs
o18358 8.5 0.0 warmup_obs
o18359 9.7 0.0 warmup_obs
o18360 10.5 0.0 warmup_obs
o18361 10.9 0.0 warmup_obs
o18362 11.35 0.0 warmup_obs
o18363 11.79 0.0 warmup_obs
o18364 12.5 0.0 warmup_obs
o18365 13.5 0.0 warmup_obs
o18366 14.49 0.0 warmup_obs
o18367 14.9 0.0 warmup_obs
o18368 14.9 0.0 warmup_obs
o18369 14.53 0.0 warmup_obs
o18370 14.1 0.0 warmup_obs
o18371 13.5 0.0 warmup_obs
o18372 13.0 0.0 warmup_obs
o18373 12.5 0.0 warmup_obs
o18374 12.2 0.0 warmup_obs
o18375 11.8 0.0 warmup_obs
o18376 11.72 0.0 warmup_obs
o18377 11.51 0.0 warmup_obs
o18378 11.27 0.0 warmup_obs
o18379 10.9 0.0 warmup_obs
o18380 10.5 0.0 warmup_obs
o18381 10.3 0.0 warmup_obs
o18382 10.38 0.0 warmup_obs
o18383 11.2 0.0 warmup_obs
o18384 12.5 0.0 warmup_obs
o18385 14.4 0.0 warmup_obs
o18386 16.01 0.0 warmup_obs
o18387 17.35 0.0 warmup_obs
o18388 18.1 0.0 warmup_obs
o18389 18.2 0.0 warmup_obs
o18390 17.65 0.0 warmup_obs
o18391 16.8 0.0 warmup_obs
o18392 15.82 0.0 warmup_obs
o18393 14.87 0.0 warmup_obs
o18394 14.03 0.0 warmup_obs
o18395 13.03 0.0 warmup_obs
o18396 12.13 0.0 warmup_obs
o18397 11.43 0.0 warmup_obs
o18398 10.73 0.0 warmup_obs
o18399 10.22 0.0 warmup_obs
o18400 9.75 0.0 warmup_obs
o18401 9.37 0.0 warmup_obs
o18402 8.93 0.0 warmup_obs
o18403 8.52 0.0 warmup_obs
o18404 8.16 0.0 warmup_obs
o18405 7.75 0.0 warmup_obs
o18406 7.39 0.0 warmup_obs
o18407 7.1 0.0 warmup_obs
o18408 6.76 0.0 warmup_obs
o18409 6.46 0.0 warmup_obs
o18410 6.26 0.0 warmup_obs
o18411 5.98 0.0 warmup_obs
o18412 5.74 0.0 warmup_obs
o18413 5.9 0.0 warmup_obs
o18414 5.78 0.0 warmup_obs
o18415 5.67 0.0 warmup_obs
o18416 5.5 0.0 warmup_obs
o18417 5.3 0.0 warmup_obs
o18418 5.08 0.0 warmup_obs
o18419 4.85 0.0 warmup_obs
o18420 4.67 0.0 warmup_obs
o18421 4.57 0.0 warmup_obs
o18422 4.35 0.0 warmup_obs
o18423 4.16 0.0 warmup_obs
o18424 3.96 0.0 warmup_obs
o18425 3.9 0.0 warmup_obs
o18426 3.73 0.0 warmup_obs
o18427 3.65 0.0 warmup_obs
o18428 3.45 0.0 warmup_obs
o18429 3.3 0.0 warmup_obs
o18430 3.27 0.0 warmup_obs
o18431 3.16 0.0 warmup_obs
o18432 3.1 0.0 warmup_obs
o18433 3.16 0.0 warmup_obs
o18434 3.2 0.0 warmup_obs
o18435 3.28 0.0 warmup_obs
o18436 3.3 0.0 warmup_obs
o18437 3.31 0.0 warmup_obs
o18438 3.38 0.0 warmup_obs
o18439 3.37 0.0 warmup_obs
o18440 3.33 0.0 warmup_obs
o18441 3.34 0.0 warmup_obs
o18442 3.3 0.0 warmup_obs
o18443 3.2 0.0 warmup_obs
o18444 3.18 0.0 warmup_obs
o18445 3.23 0.0 warmup_obs
o18446 3.13 0.0 warmup_obs
o18447 3.1 0.0 warmup_obs
o18448 3.02 0.0 warmup_obs
o18449 2.96 0.0 warmup_obs
o18450 2.89 0.0 warmup_obs
o18451 3.01 0.0 warmup_obs
o18452 3.02 0.0 warmup_obs
o18453 3.0 0.0 warmup_obs
o18454 3.05 0.0 warmup_obs
o18455 3.13 0.0 warmup_obs
o18456 3.14 0.0 warmup_obs
o18457 3.18 0.0 warmup_obs
o18458 3.2 0.0 warmup_obs
o18459 3.3 0.0 warmup_obs
o18460 3.3 0.0 warmup_obs
o18461 3.27 0.0 warmup_obs
o18462 3.3 0.0 warmup_obs
o18463 3.3 0.0 warmup_obs
o18464 3.2 0.0 warmup_obs
o18465 3.19 0.0 warmup_obs
o18466 3.08 0.0 warmup_obs
o18467 3.07 0.0 warmup_obs
o18468 2.93 0.0 warmup_obs
o18469 2.88 0.0 warmup_obs
o18470 2.84 0.0 warmup_obs
o18471 2.8 0.0 warmup_obs
o18472 2.7 0.0 warmup_obs
o18473 2.6 0.0 warmup_obs
o18474 2.5 0.0 warmup_obs
o18475 2.4 0.0 warmup_obs
o18476 2.4 0.0 warmup_obs
o18477 2.4 0.0 warmup_obs
o18478 2.3 0.0 warmup_obs
o18479 2.2 0.0 warmup_obs
o18480 2.3 0.0 warmup_obs
o18481 2.4 0.0 warmup_obs
o18482 2.4 0.0 warmup_obs
o18483 2.4 0.0 warmup_obs
o18484 2.3 0.0 warmup_obs
o18485 2.3 0.0 warmup_obs
o18486 2.2 0.0 warmup_obs
o18487 2.17 0.0 warmup_obs
o18488 2.08 0.0 warmup_obs
o18489 2.05 0.0 warmup_obs
o18490 1.96 0.0 warmup_obs
o18491 1.92 0.0 warmup_obs
o18492 1.92 0.0 warmup_obs
o18493 1.9 0.0 warmup_obs
o18494 2.03 0.0 warmup_obs
o18495 2.0 0.0 warmup_obs
o18496 1.96 0.0 warmup_obs
o18497 1.98 0.0 warmup_obs
o18498 1.91 0.0 warmup_obs
o18499 1.9 0.0 warmup_obs
o18500 1.9 0.0 warmup_obs
o18501 1.88 0.0 warmup_obs
o18502 1.85 0.0 warmup_obs
o18503 1.85 0.0 warmup_obs
o18504 1.85 0.0 warmup_obs
o18505 1.95 0.0 warmup_obs
o18506 1.83 0.0 warmup_obs
o18507 1.81 0.0 warmup_obs
o18508 1.77 0.0 warmup_obs
o18509 1.74 0.0 warmup_obs
o18510 1.71 0.0 warmup_obs
o18511 1.71 0.0 warmup_obs
o18512 1.68 0.0 warmup_obs
o18513 1.87 0.0 warmup_obs
o18514 1.98 0.0 warmup_obs
o18515 2.02 0.0 warmup_obs
o18516 2.06 0.0 warmup_obs
o18517 2.24 0.0 warmup_obs
o18518 2.25 0.0 warmup_obs
o18519 2.3 0.0 warmup_obs
o18520 2.31 0.0 warmup_obs
o18521 2.34 0.0 warmup_obs
o18522 2.32 0.0 warmup_obs
o18523 2.3 0.0 warmup_obs
o18524 2.27 0.0 warmup_obs
o18525 2.23 0.0 warmup_obs
o18526 2.2 0.0 warmup_obs
o18527 2.17 0.0 warmup_obs
o18528 2.1 0.0 warmup_obs
o18529 2.07 0.0 warmup_obs
o18530 2.03 0.0 warmup_obs
o18531 1.96 0.0 warmup_obs
o18532 1.95 0.0 warmup_obs
o18533 1.88 0.0 warmup_obs
o18534 1.85 0.0 warmup_obs
o18535 1.8 0.0 warmup_obs
o18536 1.8 0.0 warmup_obs
o18537 1.82 0.0 warmup_obs
o18538 1.8 0.0 warmup_obs
o18539 1.82 0.0 warmup_obs
o18540 1.8 0.0 warmup_obs
o18541 1.8 0.0 warmup_obs
o18542 1.78 0.0 warmup_obs
o18543 1.77 0.0 warmup_obs
o18544 1.74 0.0 warmup_obs
o18545 1.72 0.0 warmup_obs
o18546 1.66 0.0 warmup_obs
o18547 1.65 0.0 warmup_obs
o18548 1.6 0.0 warmup_obs
o18549 1.6 0.0 warmup_obs
o18550 1.52 0.0 warmup_obs
o18551 1.49 0.0 warmup_obs
o18552 1.48 0.0 warmup_obs
o18553 1.47 0.0 warmup_obs
o18554 1.4 0.0 warmup_obs
o18555 1.45 0.0 warmup_obs
o18556 1.43 0.0 warmup_obs
o18557 1.4 0.0 warmup_obs
o18558 1.4 0.0 warmup_obs
o18559 1.4 0.0 warmup_obs
o18560 1.34 0.0 warmup_obs
o18561 1.3 0.0 warmup_obs
o18562 1.31 0.0 warmup_obs
o18563 1.29 0.0 warmup_obs
o18564 1.27 0.0 warmup_obs
o18565 1.25 0.0 warmup_obs
o18566 1.2 0.0 warmup_obs
o18567 1.3 0.0 warmup_obs
o18568 1.49 0.0 warmup_obs
o18569 1.53 0.0 warmup_obs
o18570 1.5 0.0 warmup_obs
o18571 1.62 0.0 warmup_obs
o18572 1.7 0.0 warmup_obs
o18573 1.8 0.0 warmup_obs
o18574 1.8 0.0 warmup_obs
o18575 1.86 0.0 warmup_obs
o18576 1.84 0.0 warmup_obs
o18577 1.81 0.0 warmup_obs
o18578 1.8 0.0 warmup_obs
o18579 1.9 0.0 warmup_obs
o18580 1.88 0.0 warmup_obs
o18581 1.87 0.0 warmup_obs
o18582 1.89 0.0 warmup_obs
o18583 1.87 0.0 warmup_obs
o18584 1.85 0.0 warmup_obs
o18585 1.85 0.0 warmup_obs
o18586 1.87 0.0 warmup_obs
o18587 1.89 0.0 warmup_obs
o18588 1.9 0.0 warmup_obs
o18589 2.09 0.0 warmup_obs
o18590 2.28 0.0 warmup_obs
o18591 2.63 0.0 warmup_obs
o18592 3.05 0.0 warmup_obs
o18593 3.58 0.0 warmup_obs
o18594 4.15 0.0 warmup_obs
o18595 4.71 0.0 warmup_obs
o18596 5.17 0.0 warmup_obs
o18597 5.51 0.0 warmup_obs
o18598 5.69 0.0 warmup_obs
o18599 6.02 0.0 warmup_obs
o18600 6.18 0.0 warmup_obs
o18601 6.21 0.0 warmup_obs
o18602 6.16 0.0 warmup_obs
o18603 6.2 0.0 warmup_obs
o18604 6.02 0.0 warmup_obs
o18605 6.01 0.0 warmup_obs
o18606 5.73 0.0 warmup_obs
o18607 5.61 0.0 warmup_obs
o18608 5.52 0.0 warmup_obs
o18609 5.38 0.0 warmup_obs
o18610 5.26 0.0 warmup_obs
o18611 5.08 0.0 warmup_obs
o18612 5.04 0.0 warmup_obs
o18613 4.82 0.0 warmup_obs
o18614 4.72 0.0 warmup_obs
o18615 4.59 0.0 warmup_obs
o18616 4.47 0.0 warmup_obs
o18617 4.36 0.0 warmup_obs
o18618 4.28 0.0 warmup_obs
o18619 4.1 0.0 warmup_obs
o18620 4.05 0.0 warmup_obs
o18621 4.0 0.0 warmup_obs
o18622 3.94 0.0 warmup_obs
o18623 3.9 0.0 warmup_obs
o18624 3.93 0.0 warmup_obs
o18625 4.05 0.0 warmup_obs
o18626 4.26 0.0 warmup_obs
o18627 4.52 0.0 warmup_obs
o18628 4.84 0.0 warmup_obs
o18629 4.97 0.0 warmup_obs
o18630 5.09 0.0 warmup_obs
o18631 5.1 0.0 warmup_obs
o18632 5.1 0.7375 calib_obs
o18633 5.3 0.7375 calib_obs
o18634 5.3 0.7375 calib_obs
o18635 5.1 0.7375 calib_obs
o18636 5.0 0.7375 calib_obs
o18637 5.0 0.7375 calib_obs
o18638 4.8 0.7375 calib_obs
o18639 4.8 0.7375 calib_obs
o18640 4.6 0.7375 calib_obs
o18641 4.6 0.7375 calib_obs
o18642 4.4 0.7375 calib_obs
o18643 4.3 0.7375 calib_obs
o18644 4.3 0.7375 calib_obs
o18645 4.3 0.7375 calib_obs
o18646 4.1 0.7375 calib_obs
o18647 4.0 0.7375 calib_obs
o18648 4.0 0.7375 calib_obs
o18649 3.9 0.7375 calib_obs
o18650 3.8 0.7375 calib_obs
o18651 3.8 0.7375 calib_obs
o18652 3.7 0.7375 calib_obs
o18653 3.7 0.7375 calib_obs
o18654 3.6 0.7375 calib_obs
o18655 3.6 0.7375 calib_obs
o18656 3.4 0.7375 calib_obs
o18657 3.4 0.7375 calib_obs
o18658 3.3 0.7375 calib_obs
o18659 3.3 0.7375 calib_obs
o18660 3.2 0.7375 calib_obs
o18661 3.2 0.7375 calib_obs
o18662 3.2 0.7375 calib_obs
o18663 3.1 0.7375 calib_obs
o18664 3.1 0.7375 calib_obs
o18665 3.0 0.7375 calib_obs
o18666 3.0 0.7375 calib_obs
o18667 3.0 0.7375 calib_obs
o18668 3.0 0.7375 calib_obs
o18669 2.9 0.7375 calib_obs
o18670 2.9 0.7375 calib_obs
o18671 2.8 0.7375 calib_obs
o18672 2.7 0.7375 calib_obs
o18673 2.7 0.7375 calib_obs
o18674 2.6 0.7375 calib_obs
o18675 2.6 0.7375 calib_obs
o18676 2.5 0.7375 calib_obs
o18677 2.5 0.7375 calib_obs
o18678 2.5 0.7375 calib_obs
o18679 2.5 0.7375 calib_obs
o18680 2.4 0.7375 calib_obs
o18681 2.4 0.7375 calib_obs
o18682 2.4 0.7375 calib_obs
o18683 2.4 0.7375 calib_obs
o18684 2.4 0.7375 calib_obs
o18685 2.5 0.7375 calib_obs
o18686 2.4 0.7375 calib_obs
o18687 2.4 0.7375 calib_obs
o18688 2.3 0.7375 calib_obs
o18689 2.3 0.7375 calib_obs
o18690 2.3 0.7375 calib_obs
o18691 2.3 0.7375 calib_obs
o18692 2.3 0.7375 calib_obs
o18693 2.4 0.7375 calib_obs
o18694 2.4 0.7375 calib_obs
o18695 2.4 0.7375 calib_obs
o18696 2.5 0.7375 calib_obs
o18697 2.5 0.7375 calib_obs
o18698 2.5 0.7375 calib_obs
o18699 2.5 0.7375 calib_obs
o18700 2.5 0.7375 calib_obs
o18701 2.5 0.7375 calib_obs
o18702 2.4 0.7375 calib_obs
o18703 2.4 0.7375 calib_obs
o18704 2.4 0.7375 calib_obs
o18705 2.4 0.7375 calib_obs
o18706 2.5 0.7375 calib_obs
o18707 2.6 0.7375 calib_obs
o18708 2.8 0.7375 calib_obs
o18709 2.9 0.7375 calib_obs
o18710 3.1 0.7375 calib_obs
o18711 3.3 0.7375 calib_obs
o18712 3.6 0.7375 calib_obs
o18713 3.8 0.7375 calib_obs
o18714 4.1 0.7375 calib_obs
o18715 4.6 0.7375 calib_obs
o18716 4.8 0.7375 calib_obs
o18717 5.1 0.7375 calib_obs
o18718 5.3 0.7375 calib_obs
o18719 5.4 0.7375 calib_obs
o18720 5.6 0.7375 calib_obs
o18721 5.7 0.7375 calib_obs
o18722 5.7 0.7375 calib_obs
o18723 5.7 0.7375 calib_obs
o18724 5.8 0.7375 calib_obs
o18725 6.0 0.7375 calib_obs
o18726 6.2 0.7375 calib_obs
o18727 6.4 0.7375 calib_obs
o18728 6.8 0.7375 calib_obs
o18729 7.3 0.7375 calib_obs
o18730 7.6 0.7375 calib_obs
o18731 8.0 0.7375 calib_obs
o18732 8.3 0.7375 calib_obs
o18733 8.5 0.7375 calib_obs
o18734 8.7 0.7375 calib_obs
o18735 8.7 0.7375 calib_obs
o18736 8.7 0.7375 calib_obs
o18737 8.5 0.7375 calib_obs
o18738 8.2 0.7375 calib_obs
o18739 8.0 0.7375 calib_obs
o18740 7.6 0.7375 calib_obs
o18741 7.4 0.7375 calib_obs
o18742 7.3 0.7375 calib_obs
o18743 7.15 0.7375 calib_obs
o18744 7.11 0.7375 calib_obs
o18745 6.97 0.7375 calib_obs
o18746 6.9 0.7375 calib_obs
o18747 6.9 0.7375 calib_obs
o18748 6.81 0.7375 calib_obs
o18749 6.8 0.7375 calib_obs
o18750 6.73 0.7375 calib_obs
o18751 6.88 0.7375 calib_obs
o18752 6.87 0.7375 calib_obs
o18753 7.07 0.7375 calib_obs
o18754 7.2 0.7375 calib_obs
o18755 7.2 0.7375 calib_obs
o18756 7.03 0.7375 calib_obs
o18757 6.93 0.7375 calib_obs
o18758 6.82 0.7375 calib_obs
o18759 6.63 0.7375 calib_obs
o18760 6.38 0.7375 calib_obs
o18761 6.27 0.7375 calib_obs
o18762 6.1 0.7375 calib_obs
o18763 5.87 0.7375 calib_obs
o18764 5.71 0.7375 calib_obs
o18765 5.53 0.7375 calib_obs
o18766 5.44 0.7375 calib_obs
o18767 5.11 0.7375 calib_obs
o18768 5.06 0.7375 calib_obs
o18769 4.9 0.7375 calib_obs
o18770 4.76 0.7375 calib_obs
o18771 4.66 0.7375 calib_obs
o18772 4.52 0.7375 calib_obs
o18773 4.37 0.7375 calib_obs
o18774 4.23 0.7375 calib_obs
o18775 4.09 0.7375 calib_obs
o18776 4.0 0.7375 calib_obs
o18777 3.91 0.7375 calib_obs
o18778 3.81 0.7375 calib_obs
o18779 3.7 0.7375 calib_obs
o18780 3.55 0.7375 calib_obs
o18781 3.39 0.7375 calib_obs
o18782 3.46 0.7375 calib_obs
o18783 3.33 0.7375 calib_obs
o18784 3.38 0.7375 calib_obs
o18785 3.33 0.7375 calib_obs
o18786 3.14 0.7375 calib_obs
o18787 3.07 0.7375 calib_obs
o18788 3.02 0.7375 calib_obs
o18789 2.98 0.7375 calib_obs
o18790 2.89 0.7375 calib_obs
o18791 2.95 0.7375 calib_obs
o18792 2.9 0.7375 calib_obs
o18793 2.85 0.7375 calib_obs
o18794 2.84 0.7375 calib_obs
o18795 2.92 0.7375 calib_obs
o18796 2.98 0.7375 calib_obs
o18797 3.0 0.7375 calib_obs
o18798 2.94 0.7375 calib_obs
o18799 2.86 0.7375 calib_obs
o18800 2.79 0.7375 calib_obs
o18801 2.73 0.7375 calib_obs
o18802 2.66 0.7375 calib_obs
o18803 2.71 0.7375 calib_obs
o18804 2.63 0.7375 calib_obs
o18805 2.65 0.7375 calib_obs
o18806 2.55 0.7375 calib_obs
o18807 2.5 0.7375 calib_obs
o18808 2.48 0.7375 calib_obs
o18809 2.58 0.7375 calib_obs
o18810 2.54 0.7375 calib_obs
o18811 2.5 0.7375 calib_obs
o18812 2.45 0.7375 calib_obs
o18813 2.39 0.7375 calib_obs
o18814 2.38 0.7375 calib_obs
o18815 2.3 0.7375 calib_obs
o18816 2.26 0.7375 calib_obs
o18817 2.21 0.7375 calib_obs
o18818 2.23 0.7375 calib_obs
o18819 2.08 0.7375 calib_obs
o18820 2.03 0.7375 calib_obs
o18821 1.98 0.7375 calib_obs
o18822 1.86 0.7375 calib_obs
o18823 1.81 0.7375 calib_obs
o18824 1.82 0.7375 calib_obs
o18825 1.8 0.7375 calib_obs
o18826 1.8 0.7375 calib_obs
o18827 1.8 0.7375 calib_obs
o18828 1.74 0.7375 calib_obs
o18829 0.0 0.0 calib_obs
o18830 1.8 0.7375 calib_obs
o18831 0.0 0.0 calib_obs
o18832 0.0 0.0 calib_obs
o18833 0.0 0.0 calib_obs
o18834 0.0 0.0 calib_obs
o18835 0.0 0.0 calib_obs
o18836 0.0 0.0 calib_obs
o18837 1.5 0.7375 calib_obs
o18838 0.0 0.0 calib_obs
o18839 0.0 0.0 calib_obs
o18840 1.36 0.7375 calib_obs
o18841 1.32 0.7375 calib_obs
o18842 1.26 0.7375 calib_obs
o18843 1.21 0.7375 calib_obs
o18844 1.2 0.7375 calib_obs
o18845 1.27 0.7375 calib_obs
o18846 1.31 0.7375 calib_obs
o18847 1.35 0.7375 calib_obs
o18848 1.45 0.7375 calib_obs
o18849 1.49 0.7375 calib_obs
o18850 1.55 0.7375 calib_obs
o18851 1.58 0.7375 calib_obs
o18852 1.6 0.7375 calib_obs
o18853 1.59 0.7375 calib_obs
o18854 1.6 0.7375 calib_obs
o18855 1.63 0.7375 calib_obs
o18856 1.77 0.7375 calib_obs
o18857 1.73 0.7375 calib_obs
o18858 1.7 0.7375 calib_obs
o18859 1.7 0.7375 calib_obs
o18860 1.7 0.7375 calib_obs
o18861 1.68 0.7375 calib_obs
o18862 1.7 0.7375 calib_obs
o18863 1.67 0.7375 calib_obs
o18864 1.65 0.7375 calib_obs
o18865 1.65 0.7375 calib_obs
o18866 1.63 0.7375 calib_obs
o18867 1.74 0.7375 calib_obs
o18868 1.59 0.7375 calib_obs
o18869 1.58 0.7375 calib_obs
o18870 1.52 0.7375 calib_obs
o18871 1.48 0.7375 calib_obs
o18872 1.41 0.7375 calib_obs
o18873 1.4 0.7375 calib_obs
o18874 1.4 0.7375 calib_obs
o18875 1.38 0.7375 calib_obs
o18876 1.4 0.7375 calib_obs
o18877 1.39 0.7375 calib_obs
o18878 1.34 0.7375 calib_obs
o18879 1.34 0.7375 calib_obs
o18880 1.27 0.7375 calib_obs
o18881 1.23 0.7375 calib_obs
o18882 1.2 0.7375 calib_obs
o18883 1.26 0.7375 calib_obs
o18884 1.34 0.7375 calib_obs
o18885 1.4 0.7375 calib_obs
o18886 1.47 0.7375 calib_obs
o18887 1.6 0.7375 calib_obs
o18888 1.69 0.7375 calib_obs
o18889 1.89 0.7375 calib_obs
o18890 2.01 0.7375 calib_obs
o18891 2.17 0.7375 calib_obs
o18892 2.32 0.7375 calib_obs
o18893 2.34 0.7375 calib_obs
o18894 2.52 0.7375 calib_obs
o18895 2.6 0.7375 calib_obs
o18896 2.66 0.7375 calib_obs
o18897 2.7 0.7375 calib_obs
o18898 2.7 0.7375 calib_obs
o18899 2.7 0.7375 calib_obs
o18900 2.69 0.7375 calib_obs
o18901 2.69 0.7375 calib_obs
o18902 2.7 0.7375 calib_obs
o18903 2.64 0.7375 calib_obs
o18904 2.6 0.7375 calib_obs
o18905 2.6 0.7375 calib_obs
o18906 2.58 0.7375 calib_obs
o18907 2.52 0.7375 calib_obs
o18908 2.59 0.7375 calib_obs
o18909 2.67 0.7375 calib_obs
o18910 2.81 0.7375 calib_obs
o18911 2.95 0.7375 calib_obs
o18912 3.17 0.7375 calib_obs
o18913 3.64 0.7375 calib_obs
o18914 4.16 0.7375 calib_obs
o18915 5.21 0.7375 calib_obs
o18916 6.33 0.7375 calib_obs
o18917 7.81 0.7375 calib_obs
o18918 9.0 0.7375 calib_obs
o18919 10.1 0.7375 calib_obs
o18920 10.7 0.7375 calib_obs
o18921 10.9 0.7375 calib_obs
o18922 11.2 0.7375 calib_obs
o18923 11.2 0.7375 calib_obs
o18924 11.2 0.7375 calib_obs
o18925 10.9 0.7375 calib_obs
o18926 10.7 0.7375 calib_obs
o18927 10.5 0.7375 calib_obs
o18928 10.1 0.7375 calib_obs
o18929 9.7 0.7375 calib_obs
o18930 9.5 0.7375 calib_obs
o18931 9.3 0.7375 calib_obs
o18932 8.9 0.7375 calib_obs
o18933 9.1 0.7375 calib_obs
o18934 9.5 0.7375 calib_obs
o18935 9.9 0.7375 calib_obs
o18936 10.5 0.7375 calib_obs
o18937 10.7 0.7375 calib_obs
o18938 10.5 0.7375 calib_obs
o18939 10.3 0.7375 calib_obs
o18940 10.1 0.7375 calib_obs
o18941 9.9 0.7375 calib_obs
o18942 9.7 0.7375 calib_obs
o18943 9.7 0.7375 calib_obs
o18944 9.5 0.7375 calib_obs
o18945 9.5 0.7375 calib_obs
o18946 9.5 0.7375 calib_obs
o18947 10.3 0.7375 calib_obs
o18948 10.9 0.7375 calib_obs
o18949 12.3 0.7375 calib_obs
o18950 13.0 0.7375 calib_obs
o18951 13.5 0.7375 calib_obs
o18952 13.5 0.7375 calib_obs
o18953 13.5 0.7375 calib_obs
o18954 13.8 0.7375 calib_obs
o18955 14.4 0.7375 calib_obs
o18956 14.6 0.7375 calib_obs
o18957 14.9 0.7375 calib_obs
o18958 14.9 0.7375 calib_obs
o18959 14.4 0.7375 calib_obs
o18960 14.6 0.7375 calib_obs
o18961 15.4 0.7375 calib_obs
o18962 16.6 0.7375 calib_obs
o18963 17.2 0.7375 calib_obs
o18964 18.1 0.7375 calib_obs
o18965 18.7 0.7375 calib_obs
o18966 19.3 0.7375 calib_obs
o18967 19.3 0.7375 calib_obs
o18968 19.0 0.7375 calib_obs
o18969 19.3 0.7375 calib_obs
o18970 20.0 0.7375 calib_obs
o18971 20.0 0.7375 calib_obs
o18972 20.0 0.7375 calib_obs
o18973 19.6 0.7375 calib_obs
o18974 19.3 0.7375 calib_obs
o18975 19.3 0.7375 calib_obs
o18976 19.6 0.7375 calib_obs
o18977 19.6 0.7375 calib_obs
o18978 19.3 0.7375 calib_obs
o18979 18.7 0.7375 calib_obs
o18980 18.1 0.7375 calib_obs
o18981 17.5 0.7375 calib_obs
o18982 16.6 0.7375 calib_obs
o18983 16.0 0.7375 calib_obs
o18984 15.2 0.7375 calib_obs
o18985 14.6 0.7375 calib_obs
o18986 14.42 0.7375 calib_obs
o18987 14.48 0.7375 calib_obs
o18988 14.8 0.7375 calib_obs
o18989 14.6 0.7375 calib_obs
o18990 14.68 0.7375 calib_obs
o18991 14.47 0.7375 calib_obs
o18992 13.82 0.7375 calib_obs
o18993 13.3 0.7375 calib_obs
o18994 13.03 0.7375 calib_obs
o18995 13.33 0.7375 calib_obs