pcf
* control data
restart estimation
146 3653 2 0 3
1 1 double point 1 0 0
10.0 5.0 0.5 0.005 20
5.0 5.0 0.005 0
0.01
50 0.01 8 8 0.01 8
1 1 1
* parameter groups
paramGroup1 relative 0.01 0.001 switch 2.0 parabolic
paramGroup2 absolute 0.05 0.001 switch 2.0 parabolic
* parameter data
ttpi none relative 1.0 0.0 2.0 paramGroup1 1.0000 0.0000 1
lp none relative 0.9 0.8 1.0 paramGroup1 1.0000 0.0000 1
cevpam fixed relative 0.5 0.5 0.5 paramGroup1 1.0000 0.0000 1
cevpph fixed relative 45 45 45 paramGroup1 1.0000 0.0000 1
rrcs3 fixed relative 0.0002 0.0002 0.0002 paramGroup1 1.0000 0.0000 1
damp none relative 0.255 0.01 0.95 paramGroup1 1.0000 0.0000 1
rivvel none relative 0.75 0.3 1 paramGroup1 1.0000 0.0000 1
tcalt fixed relative 0.6 0.6 0.6 paramGroup1 1.0000 0.0000 1
qmean fixed relative 25 25 25 paramGroup1 1.0000 0.0000 1
epotdist fixed relative 3 3 3 paramGroup1 1.0000 0.0000 1
gldepi none relative 3.0 1.0 10.0 paramGroup1 1.0000 0.0000 1
gratp none relative 2.25 2 2.5 paramGroup1 1.0000 0.0000 1
gratk none relative 1.0 0.05 2.0 paramGroup1 1.0000 0.0000 1
sdnsnew fixed relative 0.145 0.1 0.19 paramGroup1 1.0000 0.0000 1
snowdensdt fixed relative 0.0014 0.0014 0.0014 paramGroup1 1.0000 0.0000 1
ttmp_10 fixed relative 1.0 0.0 2.0 paramGroup1 1.0000 0.0000 1
ttmp_11 none relative 1.0 0.0 2.0 paramGroup1 1.0000 0.0000 1
ttmp_12 fixed relative 1.0 0.0 2.0 paramGroup1 1.0000 0.0000 1
ttmp_13 none relative 1.0 0.0 2.0 paramGroup1 1.0000 0.0000 1
ttmp_14 none relative 1.0 -1.0 2.0 paramGroup2 1.0000 0.0000 1
ttmp_15 none relative 1.0 0.0 2.0 paramGroup1 1.0000 0.0000 1
ttmp_16 none relative 1.0 0.0 2.0 paramGroup1 1.0000 0.0000 1
ttmp_17 none relative 1.0 -2.0 2.0 paramGroup2 1.0000 0.0000 1
cmlt_10 fixed relative 2.6 0.2 5.0 paramGroup1 1.0000 0.0000 1
cmlt_11 none relative 2.6 0.2 8.0 paramGroup1 1.0000 0.0000 1
cmlt_12 fixed relative 2.6 0.2 5.0 paramGroup1 1.0000 0.0000 1
cmlt_13 none relative 2.6 0.2 5.0 paramGroup1 1.0000 0.0000 1
cmlt_14 none relative 2.6 0.2 5.0 paramGroup1 1.0000 0.0000 1
cmlt_15 none relative 2.6 0.2 5.0 paramGroup1 1.0000 0.0000 1
cmlt_16 none relative 2.6 0.2 5.0 paramGroup1 1.0000 0.0000 1
cmlt_17 none relative 2.6 0.2 8.0 paramGroup1 1.0000 0.0000 1
cevp_10 fixed relative 0.15 0.1 0.2 paramGroup1 1.0000 0.0000 1
cevp_11 none relative 0.15 0.1 0.2 paramGroup1 1.0000 0.0000 1
cevp_12 fixed relative 0.15 0.1 0.2 paramGroup1 1.0000 0.0000 1
cevp_13 none relative 0.15 0.1 0.2 paramGroup1 1.0000 0.0000 1
cevp_14 none relative 0.15 0.1 0.2 paramGroup1 1.0000 0.0000 1
cevp_15 none relative 0.15 0.1 0.2 paramGroup1 1.0000 0.0000 1
cevp_16 none relative 0.15 0.1 0.2 paramGroup1 1.0000 0.0000 1
cevp_17 none relative 0.15 0.1 0.2 paramGroup1 1.0000 0.0000 1
srrcs_10 fixed relative 0.15 0.1 0.2 paramGroup1 1.0000 0.0000 1
srrcs_11 none relative 0.15 0.1 0.2 paramGroup1 1.0000 0.0000 1
srrcs_12 fixed relative 0.15 0.1 0.2 paramGroup1 1.0000 0.0000 1
srrcs_13 none relative 0.15 0.1 0.2 paramGroup1 1.0000 0.0000 1
srrcs_14 none relative 0.15 0.1 0.2 paramGroup1 1.0000 0.0000 1
srrcs_15 none relative 0.15 0.1 0.2 paramGroup1 1.0000 0.0000 1
srrcs_16 none relative 0.15 0.1 0.2 paramGroup1 1.0000 0.0000 1
srrcs_17 none relative 0.15 0.1 0.2 paramGroup1 1.0000 0.0000 1
frost_10 fixed relative 2.0 2.0 2.0 paramGroup1 1.0000 0.0000 1
frost_11 fixed relative 2.0 2.0 2.0 paramGroup1 1.0000 0.0000 1
frost_12 fixed relative 2.0 2.0 2.0 paramGroup1 1.0000 0.0000 1
frost_13 fixed relative 2.0 2.0 2.0 paramGroup1 1.0000 0.0000 1
frost_14 fixed relative 2.0 2.0 2.0 paramGroup1 1.0000 0.0000 1
frost_15 fixed relative 2.0 2.0 2.0 paramGroup1 1.0000 0.0000 1
frost_16 fixed relative 2.0 2.0 2.0 paramGroup1 1.0000 0.0000 1
frost_17 fixed relative 2.0 2.0 2.0 paramGroup1 1.0000 0.0000 1
rrcs1_100 fixed relative 0.375 0.05 0.7 paramGroup1 1.0000 0.0000 1
rrcs1_101 none relative 0.375 0.05 0.7 paramGroup1 1.0000 0.0000 1
rrcs1_102 none relative 0.375 0.05 0.7 paramGroup1 1.0000 0.0000 1
rrcs1_103 none relative 0.375 0.05 0.7 paramGroup1 1.0000 0.0000 1
rrcs1_104 none relative 0.375 0.05 0.7 paramGroup1 1.0000 0.0000 1
rrcs1_105 none relative 0.375 0.05 1.0 paramGroup1 1.0000 0.0000 1
rrcs1_106 none relative 0.375 0.05 0.7 paramGroup1 1.0000 0.0000 1
rrcs2_100 fixed relative 0.0255 0.001 0.05 paramGroup1 1.0000 0.0000 1
rrcs2_101 none relative 0.0255 0.001 0.05 paramGroup1 1.0000 0.0000 1
rrcs2_102 none relative 0.0255 0.001 0.05 paramGroup1 1.0000 0.0000 1
rrcs2_103 none relative 0.0255 0.001 0.05 paramGroup1 1.0000 0.0000 1
rrcs2_104 none relative 0.0255 0.001 0.05 paramGroup1 1.0000 0.0000 1
rrcs2_105 none relative 0.0255 0.001 0.05 paramGroup1 1.0000 0.0000 1
rrcs2_106 none relative 0.0255 0.001 0.05 paramGroup1 1.0000 0.0000 1
trrcs_100 fixed relative 0.2 0.1 0.3 paramGroup1 1.0000 0.0000 1
trrcs_101 fixed relative 0.2 0.1 0.3 paramGroup1 1.0000 0.0000 1
trrcs_102 fixed relative 0.2 0.1 0.3 paramGroup1 1.0000 0.0000 1
trrcs_103 fixed relative 0.2 0.1 0.3 paramGroup1 1.0000 0.0000 1
trrcs_104 fixed relative 0.2 0.1 0.3 paramGroup1 1.0000 0.0000 1
trrcs_105 fixed relative 0.2 0.1 0.3 paramGroup1 1.0000 0.0000 1
trrcs_106 fixed relative 0.2 0.1 0.3 paramGroup1 1.0000 0.0000 1
mperc1_100 fixed relative 65 30 100 paramGroup1 1.0000 0.0000 1
mperc1_101 fixed relative 65 30 100 paramGroup1 1.0000 0.0000 1
mperc1_102 fixed relative 65 30 100 paramGroup1 1.0000 0.0000 1
mperc1_103 fixed relative 65 30 100 paramGroup1 1.0000 0.0000 1
mperc1_104 fixed relative 65 30 100 paramGroup1 1.0000 0.0000 1
mperc1_105 fixed relative 65 30 100 paramGroup1 1.0000 0.0000 1
mperc1_106 fixed relative 65 30 100 paramGroup1 1.0000 0.0000 1
mperc2_100 fixed relative 65 30 100 paramGroup1 1.0000 0.0000 1
mperc2_101 fixed relative 65 30 100 paramGroup1 1.0000 0.0000 1
mperc2_102 fixed relative 65 30 100 paramGroup1 1.0000 0.0000 1
mperc2_103 fixed relative 65 30 100 paramGroup1 1.0000 0.0000 1
mperc2_104 fixed relative 65 30 100 paramGroup1 1.0000 0.0000 1
mperc2_105 fixed relative 65 30 100 paramGroup1 1.0000 0.0000 1
mperc2_106 fixed relative 65 30 100 paramGroup1 1.0000 0.0000 1
sfrost_100 fixed relative 1.0 1.0 1.0 paramGroup1 1.0000 0.0000 1
sfrost_101 fixed relative 1.0 1.0 1.0 paramGroup1 1.0000 0.0000 1
sfrost_102 fixed relative 1.0 1.0 1.0 paramGroup1 1.0000 0.0000 1
sfrost_103 fixed relative 1.0 1.0 1.0 paramGroup1 1.0000 0.0000 1
sfrost_104 fixed relative 1.0 1.0 1.0 paramGroup1 1.0000 0.0000 1
sfrost_105 fixed relative 1.0 1.0 1.0 paramGroup1 1.0000 0.0000 1
sfrost_106 fixed relative 1.0 1.0 1.0 paramGroup1 1.0000 0.0000 1
macrate_100 fixed relative 0.2 0.1 0.3 paramGroup1 1.0000 0.0000 1
macrate_101 none relative 0.2 0.1 0.3 paramGroup1 1.0000 0.0000 1
macrate_102 none relative 0.2 0.1 0.3 paramGroup1 1.0000 0.0000 1
macrate_103 none relative 0.2 0.1 0.3 paramGroup1 1.0000 0.0000 1
macrate_104 none relative 0.2 0.1 0.3 paramGroup1 1.0000 0.0000 1
macrate_105 none relative 0.2 0.1 0.3 paramGroup1 1.0000 0.0000 1
macrate_106 none relative 0.2 0.1 0.3 paramGroup1 1.0000 0.0000 1
mactrinf_100 fixed relative 30 10 50 paramGroup1 1.0000 0.0000 1
mactrinf_101 none relative 30 10 50 paramGroup1 1.0000 0.0000 1
mactrinf_102 none relative 30 10 50 paramGroup1 1.0000 0.0000 1
mactrinf_103 none relative 30 10 50 paramGroup1 1.0000 0.0000 1
mactrinf_104 none relative 30 10 50 paramGroup1 1.0000 0.0000 1
mactrinf_105 none relative 30 10 50 paramGroup1 1.0000 0.0000 1
mactrinf_106 none relative 30 10 50 paramGroup1 1.0000 0.0000 1
mactrsm_100 fixed relative 0.675 0.5 0.85 paramGroup1 1.0000 0.0000 1
mactrsm_101 fixed relative 0.675 0.5 0.85 paramGroup1 1.0000 0.0000 1
mactrsm_102 fixed relative 0.675 0.5 0.85 paramGroup1 1.0000 0.0000 1
mactrsm_103 fixed relative 0.675 0.5 0.85 paramGroup1 1.0000 0.0000 1
mactrsm_104 fixed relative 0.675 0.5 0.85 paramGroup1 1.0000 0.0000 1
mactrsm_105 fixed relative 0.675 0.5 0.85 paramGroup1 1.0000 0.0000 1
mactrsm_106 fixed relative 0.675 0.5 0.85 paramGroup1 1.0000 0.0000 1
srrate_100 fixed relative 0.15 0.1 0.2 paramGroup1 1.0000 0.0000 1
srrate_101 none relative 0.15 0.1 0.2 paramGroup1 1.0000 0.0000 1
srrate_102 none relative 0.15 0.1 0.2 paramGroup1 1.0000 0.0000 1
srrate_103 none relative 0.15 0.1 0.2 paramGroup1 1.0000 0.0000 1
srrate_104 none relative 0.15 0.1 0.2 paramGroup1 1.0000 0.0000 1
srrate_105 none relative 0.15 0.1 0.2 paramGroup1 1.0000 0.0000 1
srrate_106 none relative 0.15 0.1 0.2 paramGroup1 1.0000 0.0000 1
wcwp_100 fixed relative 0.07 0.04 0.1 paramGroup1 1.0000 0.0000 1
wcwp_101 none relative 0.07 0.04 0.1 paramGroup1 1.0000 0.0000 1
wcwp_102 none relative 0.07 0.04 0.1 paramGroup1 1.0000 0.0000 1
wcwp_103 none relative 0.07 0.04 0.1 paramGroup1 1.0000 0.0000 1
wcwp_104 none relative 0.07 0.04 0.1 paramGroup1 1.0000 0.0000 1
wcwp_105 none relative 0.07 0.04 0.1 paramGroup1 1.0000 0.0000 1
wcwp_106 none relative 0.07 0.04 0.1 paramGroup1 1.0000 0.0000 1
wcfc_100 fixed relative 0.25 0.1 0.4 paramGroup1 1.0000 0.0000 1
wcfc_101 none relative 0.25 0.1 0.4 paramGroup1 1.0000 0.0000 1
wcfc_102 none relative 0.25 0.1 0.5 paramGroup1 1.0000 0.0000 1
wcfc_103 none relative 0.25 0.1 0.4 paramGroup1 1.0000 0.0000 1
wcfc_104 none relative 0.25 0.1 0.4 paramGroup1 1.0000 0.0000 1
wcfc_105 none relative 0.25 0.1 0.4 paramGroup1 1.0000 0.0000 1
wcfc_106 none relative 0.25 0.1 0.4 paramGroup1 1.0000 0.0000 1
wcep_100 fixed relative 0.055 0.01 0.1 paramGroup1 1.0000 0.0000 1
wcep_101 none relative 0.055 0.01 0.1 paramGroup1 1.0000 0.0000 1
wcep_102 none relative 0.055 0.01 0.1 paramGroup1 1.0000 0.0000 1
wcep_103 none relative 0.055 0.01 0.1 paramGroup1 1.0000 0.0000 1
wcep_104 none relative 0.055 0.01 0.35 paramGroup1 1.0000 0.0000 1
wcep_105 none relative 0.055 0.01 0.35 paramGroup1 1.0000 0.0000 1
wcep_106 none relative 0.055 0.01 0.1 paramGroup1 1.0000 0.0000 1
* observation groups
warmup_obs
calib_obs
valid_obs
* observation data
o7307 2.15 0.0 warmup_obs
o7308 1.9 0.0 warmup_obs
o7309 1.64 0.0 warmup_obs
o7310 1.4 0.0 warmup_obs
o7311 1.23 0.0 warmup_obs
o7312 1.09 0.0 warmup_obs
o7313 0.99 0.0 warmup_obs
o7314 0.86 0.0 warmup_obs
o7315 0.8 0.0 warmup_obs
o7316 0.72 0.0 warmup_obs
o7317 0.67 0.0 warmup_obs
o7318 0.6 0.0 warmup_obs
o7319 0.56 0.0 warmup_obs
o7320 0.53 0.0 warmup_obs
o7321 0.5 0.0 warmup_obs
o7322 0.48 0.0 warmup_obs
o7323 0.45 0.0 warmup_obs
o7324 0.41 0.0 warmup_obs
o7325 0.38 0.0 warmup_obs
o7326 0.37 0.0 warmup_obs
o7327 0.36 0.0 warmup_obs
o7328 0.36 0.0 warmup_obs
o7329 0.36 0.0 warmup_obs
o7330 0.37 0.0 warmup_obs
o7331 0.37 0.0 warmup_obs
o7332 0.38 0.0 warmup_obs
o7333 0.39 0.0 warmup_obs
o7334 0.39 0.0 warmup_obs
o7335 0.41 0.0 warmup_obs
o7336 0.43 0.0 warmup_obs
o7337 0.48 0.0 warmup_obs
o7338 0.72 0.0 warmup_obs
o7339 0.99 0.0 warmup_obs
o7340 1.15 0.0 warmup_obs
o7341 1.16 0.0 warmup_obs
o7342 1.24 0.0 warmup_obs
o7343 1.34 0.0 warmup_obs
o7344 1.44 0.0 warmup_obs
o7345 2.31 0.0 warmup_obs
o7346 4.24 0.0 warmup_obs
o7347 11.0 0.0 warmup_obs
o7348 20.5 0.0 warmup_obs
o7349 31.5 0.0 warmup_obs
o7350 33.5 0.0 warmup_obs
o7351 32.86 0.0 warmup_obs
o7352 31.0 0.0 warmup_obs
o7353 26.4 0.0 warmup_obs
o7354 23.0 0.0 warmup_obs
o7355 19.9 0.0 warmup_obs
o7356 18.1 0.0 warmup_obs
o7357 17.1 0.0 warmup_obs
o7358 16.2 0.0 warmup_obs
o7359 15.7 0.0 warmup_obs
o7360 15.1 0.0 warmup_obs
o7361 13.8 0.0 warmup_obs
o7362 12.9 0.0 warmup_obs
o7363 12.4 0.0 warmup_obs
o7364 0.0 0.0 warmup_obs
o7365 0.0 0.0 warmup_obs
o7366 11.4 0.0 warmup_obs
o7367 9.9 0.0 warmup_obs
o7368 9.9 0.0 warmup_obs
o7369 9.6 0.0 warmup_obs
o7370 8.7 0.0 warmup_obs
o7371 8.2 0.0 warmup_obs
o7372 8.2 0.0 warmup_obs
o7373 7.9 0.0 warmup_obs
o7374 8.7 0.0 warmup_obs
o7375 7.8 0.0 warmup_obs
o7376 8.1 0.0 warmup_obs
o7377 9.1 0.0 warmup_obs
o7378 8.7 0.0 warmup_obs
o7379 8.4 0.0 warmup_obs
o7380 7.6 0.0 warmup_obs
o7381 8.2 0.0 warmup_obs
o7382 6.9 0.0 warmup_obs
o7383 6.9 0.0 warmup_obs
o7384 8.7 0.0 warmup_obs
o7385 8.5 0.0 warmup_obs
o7386 8.1 0.0 warmup_obs
o7387 7.9 0.0 warmup_obs
o7388 6.1 0.0 warmup_obs
o7389 5.3 0.0 warmup_obs
o7390 6.7 0.0 warmup_obs
o7391 5.2 0.0 warmup_obs
o7392 4.6 0.0 warmup_obs
o7393 5.2 0.0 warmup_obs
o7394 5.6 0.0 warmup_obs
o7395 7.5 0.0 warmup_obs
o7396 8.1 0.0 warmup_obs
o7397 8.2 0.0 warmup_obs
o7398 10.6 0.0 warmup_obs
o7399 12.0 0.0 warmup_obs
o7400 13.6 0.0 warmup_obs
o7401 13.8 0.0 warmup_obs
o7402 13.1 0.0 warmup_obs
o7403 12.8 0.0 warmup_obs
o7404 17.3 0.0 warmup_obs
o7405 22.4 0.0 warmup_obs
o7406 24.0 0.0 warmup_obs
o7407 23.8 0.0 warmup_obs
o7408 22.6 0.0 warmup_obs
o7409 21.0 0.0 warmup_obs
o7410 18.5 0.0 warmup_obs
o7411 16.0 0.0 warmup_obs
o7412 14.0 0.0 warmup_obs
o7413 12.8 0.0 warmup_obs
o7414 11.7 0.0 warmup_obs
o7415 11.4 0.0 warmup_obs
o7416 12.2 0.0 warmup_obs
o7417 12.6 0.0 warmup_obs
o7418 12.4 0.0 warmup_obs
o7419 11.6 0.0 warmup_obs
o7420 10.4 0.0 warmup_obs
o7421 9.1 0.0 warmup_obs
o7422 7.9 0.0 warmup_obs
o7423 8.4 0.0 warmup_obs
o7424 12.4 0.0 warmup_obs
o7425 18.5 0.0 warmup_obs
o7426 21.6 0.0 warmup_obs
o7427 23.4 0.0 warmup_obs
o7428 23.4 0.0 warmup_obs
o7429 21.8 0.0 warmup_obs
o7430 19.1 0.0 warmup_obs
o7431 15.3 0.0 warmup_obs
o7432 12.6 0.0 warmup_obs
o7433 10.9 0.0 warmup_obs
o7434 9.3 0.0 warmup_obs
o7435 7.0 0.0 warmup_obs
o7436 6.2 0.0 warmup_obs
o7437 5.4 0.0 warmup_obs
o7438 4.8 0.0 warmup_obs
o7439 4.2 0.0 warmup_obs
o7440 3.7 0.0 warmup_obs
o7441 2.5 0.0 warmup_obs
o7442 2.4 0.0 warmup_obs
o7443 2.2 0.0 warmup_obs
o7444 1.55 0.0 warmup_obs
o7445 1.18 0.0 warmup_obs
o7446 1.1 0.0 warmup_obs
o7447 1.63 0.0 warmup_obs
o7448 1.81 0.0 warmup_obs
o7449 1.28 0.0 warmup_obs
o7450 1.1 0.0 warmup_obs
o7451 1.03 0.0 warmup_obs
o7452 0.89 0.0 warmup_obs
o7453 0.67 0.0 warmup_obs
o7454 1.18 0.0 warmup_obs
o7455 1.47 0.0 warmup_obs
o7456 1.28 0.0 warmup_obs
o7457 1.18 0.0 warmup_obs
o7458 1.03 0.0 warmup_obs
o7459 0.93 0.0 warmup_obs
o7460 0.89 0.0 warmup_obs
o7461 0.49 0.0 warmup_obs
o7462 0.22 0.0 warmup_obs
o7463 0.18 0.0 warmup_obs
o7464 0.67 0.0 warmup_obs
o7465 0.93 0.0 warmup_obs
o7466 0.49 0.0 warmup_obs
o7467 0.22 0.0 warmup_obs
o7468 0.18 0.0 warmup_obs
o7469 0.14 0.0 warmup_obs
o7470 0.1 0.0 warmup_obs
o7471 0.1 0.0 warmup_obs
o7472 0.59 0.0 warmup_obs
o7473 0.7 0.0 warmup_obs
o7474 0.3 0.0 warmup_obs
o7475 0.0 0.0 warmup_obs
o7476 0.0 0.0 warmup_obs
o7477 0.0 0.0 warmup_obs
o7478 0.0 0.0 warmup_obs
o7479 0.0 0.0 warmup_obs
o7480 0.0 0.0 warmup_obs
o7481 0.0 0.0 warmup_obs
o7482 0.0 0.0 warmup_obs
o7483 0.0 0.0 warmup_obs
o7484 0.0 0.0 warmup_obs
o7485 0.0 0.0 warmup_obs
o7486 0.0 0.0 warmup_obs
o7487 0.0 0.0 warmup_obs
o7488 0.0 0.0 warmup_obs
o7489 0.0 0.0 warmup_obs
o7490 0.0 0.0 warmup_obs
o7491 0.0 0.0 warmup_obs
o7492 0.0 0.0 warmup_obs
o7493 0.0 0.0 warmup_obs
o7494 0.0 0.0 warmup_obs
o7495 0.0 0.0 warmup_obs
o7496 0.0 0.0 warmup_obs
o7497 0.0 0.0 warmup_obs
o7498 0.0 0.0 warmup_obs
o7499 0.0 0.0 warmup_obs
o7500 0.0 0.0 warmup_obs
o7501 0.0 0.0 warmup_obs
o7502 0.0 0.0 warmup_obs
o7503 0.0 0.0 warmup_obs
o7504 0.0 0.0 warmup_obs
o7505 0.0 0.0 warmup_obs
o7506 0.0 0.0 warmup_obs
o7507 0.0 0.0 warmup_obs
o7508 0.0 0.0 warmup_obs
o7509 0.0 0.0 warmup_obs
o7510 0.0 0.0 warmup_obs
o7511 0.0 0.0 warmup_obs
o7512 0.0 0.0 warmup_obs
o7513 0.0 0.0 warmup_obs
o7514 0.0 0.0 warmup_obs
o7515 0.0 0.0 warmup_obs
o7516 0.0 0.0 warmup_obs
o7517 0.0 0.0 warmup_obs
o7518 0.0 0.0 warmup_obs
o7519 0.0 0.0 warmup_obs
o7520 0.0 0.0 warmup_obs
o7521 0.0 0.0 warmup_obs
o7522 0.0 0.0 warmup_obs
o7523 0.0 0.0 warmup_obs
o7524 0.0 0.0 warmup_obs
o7525 0.0 0.0 warmup_obs
o7526 0.0 0.0 warmup_obs
o7527 0.0 0.0 warmup_obs
o7528 0.0 0.0 warmup_obs
o7529 0.0 0.0 warmup_obs
o7530 0.0 0.0 warmup_obs
o7531 0.0 0.0 warmup_obs
o7532 0.0 0.0 warmup_obs
o7533 0.0 0.0 warmup_obs
o7534 0.0 0.0 warmup_obs
o7535 0.0 0.0 warmup_obs
o7536 0.48 0.0 warmup_obs
o7537 0.0 0.0 warmup_obs
o7538 0.0 0.0 warmup_obs
o7539 0.0 0.0 warmup_obs
o7540 0.0 0.0 warmup_obs
o7541 0.0 0.0 warmup_obs
o7542 0.0 0.0 warmup_obs
o7543 0.0 0.0 warmup_obs
o7544 0.0 0.0 warmup_obs
o7545 0.0 0.0 warmup_obs
o7546 0.0 0.0 warmup_obs
o7547 0.0 0.0 warmup_obs
o7548 0.0 0.0 warmup_obs
o7549 0.0 0.0 warmup_obs
o7550 0.0 0.0 warmup_obs
o7551 0.0 0.0 warmup_obs
o7552 0.0 0.0 warmup_obs
o7553 0.0 0.0 warmup_obs
o7554 0.0 0.0 warmup_obs
o7555 0.0 0.0 warmup_obs
o7556 0.0 0.0 warmup_obs
o7557 0.0 0.0 warmup_obs
o7558 0.0 0.0 warmup_obs
o7559 0.0 0.0 warmup_obs
o7560 0.0 0.0 warmup_obs
o7561 0.0 0.0 warmup_obs
o7562 0.0 0.0 warmup_obs
o7563 0.0 0.0 warmup_obs
o7564 0.0 0.0 warmup_obs
o7565 0.0 0.0 warmup_obs
o7566 0.0 0.0 warmup_obs
o7567 0.0 0.0 warmup_obs
o7568 0.0 0.0 warmup_obs
o7569 0.0 0.0 warmup_obs
o7570 0.0 0.0 warmup_obs
o7571 0.0 0.0 warmup_obs
o7572 1.63 0.0 warmup_obs
o7573 1.53 0.0 warmup_obs
o7574 0.68 0.0 warmup_obs
o7575 0.33 0.0 warmup_obs
o7576 0.22 0.0 warmup_obs
o7577 0.18 0.0 warmup_obs
o7578 0.17 0.0 warmup_obs
o7579 0.31 0.0 warmup_obs
o7580 1.41 0.0 warmup_obs
o7581 2.76 0.0 warmup_obs
o7582 2.22 0.0 warmup_obs
o7583 1.51 0.0 warmup_obs
o7584 1.08 0.0 warmup_obs
o7585 0.91 0.0 warmup_obs
o7586 1.37 0.0 warmup_obs
o7587 0.97 0.0 warmup_obs
o7588 0.75 0.0 warmup_obs
o7589 0.54 0.0 warmup_obs
o7590 0.58 0.0 warmup_obs
o7591 0.65 0.0 warmup_obs
o7592 0.66 0.0 warmup_obs
o7593 0.47 0.0 warmup_obs
o7594 0.3 0.0 warmup_obs
o7595 0.47 0.0 warmup_obs
o7596 0.56 0.0 warmup_obs
o7597 0.41 0.0 warmup_obs
o7598 0.27 0.0 warmup_obs
o7599 0.22 0.0 warmup_obs
o7600 0.35 0.0 warmup_obs
o7601 0.51 0.0 warmup_obs
o7602 0.57 0.0 warmup_obs
o7603 0.59 0.0 warmup_obs
o7604 0.58 0.0 warmup_obs
o7605 0.6 0.0 warmup_obs
o7606 0.63 0.0 warmup_obs
o7607 0.7 0.0 warmup_obs
o7608 2.6 0.0 warmup_obs
o7609 7.43 0.0 warmup_obs
o7610 12.34 0.0 warmup_obs
o7611 14.32 0.0 warmup_obs
o7612 13.07 0.0 warmup_obs
o7613 11.03 0.0 warmup_obs
o7614 9.0 0.0 warmup_obs
o7615 7.2 0.0 warmup_obs
o7616 6.6 0.0 warmup_obs
o7617 5.37 0.0 warmup_obs
o7618 4.8 0.0 warmup_obs
o7619 4.2 0.0 warmup_obs
o7620 3.9 0.0 warmup_obs
o7621 3.12 0.0 warmup_obs
o7622 4.2 0.0 warmup_obs
o7623 5.16 0.0 warmup_obs
o7624 3.11 0.0 warmup_obs
o7625 2.67 0.0 warmup_obs
o7626 2.53 0.0 warmup_obs
o7627 2.49 0.0 warmup_obs
o7628 2.96 0.0 warmup_obs
o7629 5.14 0.0 warmup_obs
o7630 8.48 0.0 warmup_obs
o7631 11.42 0.0 warmup_obs
o7632 13.73 0.0 warmup_obs
o7633 15.18 0.0 warmup_obs
o7634 14.74 0.0 warmup_obs
o7635 13.84 0.0 warmup_obs
o7636 13.18 0.0 warmup_obs
o7637 11.65 0.0 warmup_obs
o7638 11.09 0.0 warmup_obs
o7639 10.66 0.0 warmup_obs
o7640 10.58 0.0 warmup_obs
o7641 9.41 0.0 warmup_obs
o7642 7.45 0.0 warmup_obs
o7643 8.34 0.0 warmup_obs
o7644 7.39 0.0 warmup_obs
o7645 7.68 0.0 warmup_obs
o7646 6.38 0.0 warmup_obs
o7647 6.67 0.0 warmup_obs
o7648 7.67 0.0 warmup_obs
o7649 5.3 0.0 warmup_obs
o7650 4.18 0.0 warmup_obs
o7651 5.28 0.0 warmup_obs
o7652 6.43 0.0 warmup_obs
o7653 7.17 0.0 warmup_obs
o7654 5.97 0.0 warmup_obs
o7655 4.72 0.0 warmup_obs
o7656 4.6 0.0 warmup_obs
o7657 3.05 0.0 warmup_obs
o7658 2.5 0.0 warmup_obs
o7659 2.27 0.0 warmup_obs
o7660 1.88 0.0 warmup_obs
o7661 1.9 0.0 warmup_obs
o7662 2.09 0.0 warmup_obs
o7663 2.91 0.0 warmup_obs
o7664 4.88 0.0 warmup_obs
o7665 6.03 0.0 warmup_obs
o7666 7.65 0.0 warmup_obs
o7667 8.86 0.0 warmup_obs
o7668 9.62 0.0 warmup_obs
o7669 9.35 0.0 warmup_obs
o7670 8.14 0.0 warmup_obs
o7671 6.81 0.0 warmup_obs
o7672 5.81 0.0 warmup_obs
o7673 5.32 0.6725 calib_obs
o7674 5.25 0.6725 calib_obs
o7675 4.63 0.6725 calib_obs
o7676 4.21 0.6725 calib_obs
o7677 3.79 0.6725 calib_obs
o7678 3.42 0.6725 calib_obs
o7679 3.2 0.6725 calib_obs
o7680 3.04 0.6725 calib_obs
o7681 2.82 0.6725 calib_obs
o7682 2.64 0.6725 calib_obs
o7683 2.47 0.6725 calib_obs
o7684 2.29 0.6725 calib_obs
o7685 2.19 0.6725 calib_obs
o7686 2.17 0.6725 calib_obs
o7687 2.07 0.6725 calib_obs
o7688 1.91 0.6725 calib_obs
o7689 1.77 0.6725 calib_obs
o7690 1.7 0.6725 calib_obs
o7691 1.65 0.6725 calib_obs
o7692 1.6 0.6725 calib_obs
o7693 1.5 0.6725 calib_obs
o7694 1.45 0.6725 calib_obs
o7695 1.42 0.6725 calib_obs
o7696 1.38 0.6725 calib_obs
o7697 1.32 0.6725 calib_obs
o7698 1.27 0.6725 calib_obs
o7699 1.21 0.6725 calib_obs
o7700 1.18 0.6725 calib_obs
o7701 1.14 0.6725 calib_obs
o7702 1.12 0.6725 calib_obs
o7703 1.09 0.6725 calib_obs
o7704 1.07 0.6725 calib_obs
o7705 1.04 0.6725 calib_obs
o7706 1.02 0.6725 calib_obs
o7707 1.02 0.6725 calib_obs
o7708 1.0 0.6725 calib_obs
o7709 0.98 0.6725 calib_obs
o7710 0.97 0.6725 calib_obs
o7711 0.97 0.6725 calib_obs
o7712 0.97 0.6725 calib_obs
o7713 0.96 0.6725 calib_obs
o7714 0.96 0.6725 calib_obs
o7715 0.95 0.6725 calib_obs
o7716 0.95 0.6725 calib_obs
o7717 0.95 0.6725 calib_obs
o7718 0.99 0.6725 calib_obs
o7719 1.03 0.6725 calib_obs
o7720 1.2 0.6725 calib_obs
o7721 1.42 0.6725 calib_obs
o7722 1.51 0.6725 calib_obs
o7723 1.71 0.6725 calib_obs
o7724 1.98 0.6725 calib_obs
o7725 2.09 0.6725 calib_obs
o7726 2.16 0.6725 calib_obs
o7727 2.16 0.6725 calib_obs
o7728 2.16 0.6725 calib_obs
o7729 2.11 0.6725 calib_obs
o7730 2.14 0.6725 calib_obs
o7731 2.19 0.6725 calib_obs
o7732 2.47 0.6725 calib_obs
o7733 2.88 0.6725 calib_obs
o7734 2.97 0.6725 calib_obs
o7735 3.14 0.6725 calib_obs
o7736 2.95 0.6725 calib_obs
o7737 2.78 0.6725 calib_obs
o7738 2.64 0.6725 calib_obs
o7739 2.52 0.6725 calib_obs
o7740 2.45 0.6725 calib_obs
o7741 2.34 0.6725 calib_obs
o7742 2.26 0.6725 calib_obs
o7743 2.2 0.6725 calib_obs
o7744 2.14 0.6725 calib_obs
o7745 2.1 0.6725 calib_obs
o7746 2.4 0.6725 calib_obs
o7747 4.4 0.6725 calib_obs
o7748 4.2 0.6725 calib_obs
o7749 6.1 0.6725 calib_obs
o7750 6.8 0.6725 calib_obs
o7751 6.5 0.6725 calib_obs
o7752 5.6 0.6725 calib_obs
o7753 7.2 0.6725 calib_obs
o7754 8.7 0.6725 calib_obs
o7755 8.8 0.6725 calib_obs
o7756 7.3 0.6725 calib_obs
o7757 6.1 0.6725 calib_obs
o7758 6.5 0.6725 calib_obs
o7759 7.3 0.6725 calib_obs
o7760 6.8 0.6725 calib_obs
o7761 5.4 0.6725 calib_obs
o7762 4.6 0.6725 calib_obs
o7763 4.2 0.6725 calib_obs
o7764 5.2 0.6725 calib_obs
o7765 6.5 0.6725 calib_obs
o7766 6.9 0.6725 calib_obs
o7767 7.5 0.6725 calib_obs
o7768 8.2 0.6725 calib_obs
o7769 8.4 0.6725 calib_obs
o7770 7.9 0.6725 calib_obs
o7771 7.8 0.6725 calib_obs
o7772 7.8 0.6725 calib_obs
o7773 8.2 0.6725 calib_obs
o7774 8.5 0.6725 calib_obs
o7775 8.7 0.6725 calib_obs
o7776 7.3 0.6725 calib_obs
o7777 6.4 0.6725 calib_obs
o7778 5.6 0.6725 calib_obs
o7779 5.0 0.6725 calib_obs
o7780 4.4 0.6725 calib_obs
o7781 3.8 0.6725 calib_obs
o7782 3.5 0.6725 calib_obs
o7783 3.5 0.6725 calib_obs
o7784 4.06 0.6725 calib_obs
o7785 4.11 0.6725 calib_obs
o7786 4.04 0.6725 calib_obs
o7787 4.08 0.6725 calib_obs
o7788 5.12 0.6725 calib_obs
o7789 5.81 0.6725 calib_obs
o7790 5.85 0.6725 calib_obs
o7791 5.25 0.6725 calib_obs
o7792 5.78 0.6725 calib_obs
o7793 7.11 0.6725 calib_obs
o7794 7.09 0.6725 calib_obs
o7795 6.6 0.6725 calib_obs
o7796 5.93 0.6725 calib_obs
o7797 5.37 0.6725 calib_obs
o7798 4.7 0.6725 calib_obs
o7799 4.11 0.6725 calib_obs
o7800 3.64 0.6725 calib_obs
o7801 3.35 0.6725 calib_obs
o7802 3.06 0.6725 calib_obs
o7803 2.77 0.6725 calib_obs
o7804 2.64 0.6725 calib_obs
o7805 2.42 0.6725 calib_obs
o7806 2.21 0.6725 calib_obs
o7807 2.06 0.6725 calib_obs
o7808 1.93 0.6725 calib_obs
o7809 1.8 0.6725 calib_obs
o7810 1.67 0.6725 calib_obs
o7811 1.54 0.6725 calib_obs
o7812 1.59 0.6725 calib_obs
o7813 1.42 0.6725 calib_obs
o7814 1.21 0.6725 calib_obs
o7815 1.16 0.6725 calib_obs
o7816 1.03 0.6725 calib_obs
o7817 0.98 0.6725 calib_obs
o7818 0.86 0.6725 calib_obs
o7819 0.79 0.6725 calib_obs
o7820 0.67 0.6725 calib_obs
o7821 0.65 0.6725 calib_obs
o7822 0.63 0.6725 calib_obs
o7823 0.63 0.6725 calib_obs
o7824 0.68 0.6725 calib_obs
o7825 0.73 0.6725 calib_obs
o7826 0.71 0.6725 calib_obs
o7827 0.66 0.6725 calib_obs
o7828 0.62 0.6725 calib_obs
o7829 0.62 0.6725 calib_obs
o7830 0.61 0.6725 calib_obs
o7831 0.6 0.6725 calib_obs
o7832 0.73 0.6725 calib_obs
o7833 1.02 0.6725 calib_obs
o7834 1.08 0.6725 calib_obs
o7835 0.96 0.6725 calib_obs
o7836 1.57 0.6725 calib_obs
o7837 2.88 0.6725 calib_obs
o7838 3.27 0.6725 calib_obs
o7839 2.54 0.6725 calib_obs
o7840 1.79 0.6725 calib_obs
o7841 1.44 0.6725 calib_obs
o7842 1.12 0.6725 calib_obs
o7843 0.99 0.6725 calib_obs
o7844 1.34 0.6725 calib_obs
o7845 2.55 0.6725 calib_obs
o7846 3.23 0.6725 calib_obs
o7847 2.71 0.6725 calib_obs
o7848 2.16 0.6725 calib_obs
o7849 1.76 0.6725 calib_obs
o7850 1.66 0.6725 calib_obs
o7851 1.94 0.6725 calib_obs
o7852 1.55 0.6725 calib_obs
o7853 1.23 0.6725 calib_obs
o7854 0.93 0.6725 calib_obs
o7855 0.82 0.6725 calib_obs
o7856 0.72 0.6725 calib_obs
o7857 0.69 0.6725 calib_obs
o7858 0.67 0.6725 calib_obs
o7859 0.66 0.6725 calib_obs
o7860 0.64 0.6725 calib_obs
o7861 0.61 0.6725 calib_obs
o7862 0.58 0.6725 calib_obs
o7863 0.43 2.0175 calib_obs
o7864 0.23 2.0175 calib_obs
o7865 0.22 2.0175 calib_obs
o7866 0.54 2.0175 calib_obs
o7867 1.68 0.6725 calib_obs
o7868 2.55 0.6725 calib_obs
o7869 2.5 0.6725 calib_obs
o7870 2.38 0.6725 calib_obs
o7871 1.71 0.6725 calib_obs
o7872 0.99 0.6725 calib_obs
o7873 1.09 0.6725 calib_obs
o7874 1.86 0.6725 calib_obs
o7875 1.86 0.6725 calib_obs
o7876 1.54 0.6725 calib_obs
o7877 1.57 0.6725 calib_obs
o7878 1.48 0.6725 calib_obs
o7879 1.39 0.6725 calib_obs
o7880 1.31 0.6725 calib_obs
o7881 1.17 0.6725 calib_obs
o7882 1.04 0.6725 calib_obs
o7883 0.93 0.6725 calib_obs
o7884 0.87 0.6725 calib_obs
o7885 0.82 0.6725 calib_obs
o7886 0.81 0.6725 calib_obs
o7887 0.81 0.6725 calib_obs
o7888 0.93 0.6725 calib_obs
o7889 2.45 0.6725 calib_obs
o7890 3.08 0.6725 calib_obs
o7891 2.96 0.6725 calib_obs
o7892 2.55 0.6725 calib_obs
o7893 1.89 0.6725 calib_obs
o7894 1.62 0.6725 calib_obs
o7895 1.9 0.6725 calib_obs
o7896 1.48 0.6725 calib_obs
o7897 4.55 0.6725 calib_obs
o7898 7.56 0.6725 calib_obs
o7899 7.64 0.6725 calib_obs
o7900 6.63 0.6725 calib_obs
o7901 5.92 0.6725 calib_obs
o7902 5.19 0.6725 calib_obs
o7903 4.53 0.6725 calib_obs
o7904 3.57 0.6725 calib_obs
o7905 2.64 0.6725 calib_obs
o7906 2.43 0.6725 calib_obs
o7907 1.89 0.6725 calib_obs
o7908 2.12 0.6725 calib_obs
o7909 1.94 0.6725 calib_obs
o7910 1.44 0.6725 calib_obs
o7911 1.3 0.6725 calib_obs
o7912 1.87 0.6725 calib_obs
o7913 1.36 0.6725 calib_obs
o7914 1.04 0.6725 calib_obs
o7915 0.92 0.6725 calib_obs
o7916 0.89 0.6725 calib_obs
o7917 0.83 0.6725 calib_obs
o7918 0.76 0.6725 calib_obs
o7919 0.73 0.6725 calib_obs
o7920 0.64 0.6725 calib_obs
o7921 0.69 0.6725 calib_obs
o7922 0.71 0.6725 calib_obs
o7923 0.73 0.6725 calib_obs
o7924 0.84 0.6725 calib_obs
o7925 1.33 0.6725 calib_obs
o7926 1.64 0.6725 calib_obs
o7927 2.65 0.6725 calib_obs
o7928 3.96 0.6725 calib_obs
o7929 5.68 0.6725 calib_obs
o7930 11.09 0.6725 calib_obs
o7931 14.54 0.6725 calib_obs
o7932 14.42 0.6725 calib_obs
o7933 13.41 0.6725 calib_obs
o7934 11.01 0.6725 calib_obs
o7935 10.23 0.6725 calib_obs
o7936 8.92 0.6725 calib_obs
o7937 8.13 0.6725 calib_obs
o7938 7.72 0.6725 calib_obs
o7939 7.08 0.6725 calib_obs
o7940 6.03 0.6725 calib_obs
o7941 5.21 0.6725 calib_obs
o7942 4.64 0.6725 calib_obs
o7943 4.2 0.6725 calib_obs
o7944 3.94 0.6725 calib_obs
o7945 3.61 0.6725 calib_obs
o7946 3.53 0.6725 calib_obs
o7947 3.5 0.6725 calib_obs
o7948 3.5 0.6725 calib_obs
o7949 4.81 0.6725 calib_obs
o7950 7.39 0.6725 calib_obs
o7951 9.84 0.6725 calib_obs
o7952 10.62 0.6725 calib_obs
o7953 10.25 0.6725 calib_obs
o7954 12.86 0.6725 calib_obs
o7955 16.67 0.6725 calib_obs
o7956 19.95 0.6725 calib_obs
o7957 21.94 0.6725 calib_obs
o7958 22.79 0.6725 calib_obs
o7959 21.76 0.6725 calib_obs
o7960 19.76 0.6725 calib_obs
o7961 18.1 0.6725 calib_obs
o7962 16.8 0.6725 calib_obs
o7963 16.2 0.6725 calib_obs
o7964 15.8 0.6725 calib_obs
o7965 14.5 0.6725 calib_obs
o7966 12.4 0.6725 calib_obs
o7967 11.0 0.6725 calib_obs
o7968 9.9 0.6725 calib_obs
o7969 8.5 0.6725 calib_obs
o7970 7.2 0.6725 calib_obs
o7971 6.7 0.6725 calib_obs
o7972 6.2 0.6725 calib_obs
o7973 6.0 0.6725 calib_obs
o7974 7.5 0.6725 calib_obs
o7975 9.6 0.6725 calib_obs
o7976 10.2 0.6725 calib_obs
o7977 9.8 0.6725 calib_obs
o7978 8.5 0.6725 calib_obs
o7979 6.9 0.6725 calib_obs
o7980 6.1 0.6725 calib_obs
o7981 5.8 0.6725 calib_obs
o7982 5.7 0.6725 calib_obs
o7983 5.7 0.6725 calib_obs
o7984 5.6 0.6725 calib_obs
o7985 5.3 0.6725 calib_obs
o7986 5.3 0.6725 calib_obs
o7987 6.7 0.6725 calib_obs
o7988 11.6 0.6725 calib_obs
o7989 15.8 0.6725 calib_obs
o7990 16.9 0.6725 calib_obs
o7991 15.3 0.6725 calib_obs
o7992 13.8 0.6725 calib_obs
o7993 12.9 0.6725 calib_obs
o7994 12.9 0.6725 calib_obs
o7995 14.0 0.6725 calib_obs
o7996 13.8 0.6725 calib_obs
o7997 13.1 0.6725 calib_obs
o7998 11.7 0.6725 calib_obs
o7999 10.6 0.6725 calib_obs
o8000 9.8 0.6725 calib_obs
o8001 10.7 0.6725 calib_obs
o8002 12.0 0.6725 calib_obs
o8003 14.9 0.6725 calib_obs
o8004 15.8 0.6725 calib_obs
o8005 15.7 0.6725 calib_obs
o8006 16.2 0.6725 calib_obs
o8007 16.2 0.6725 calib_obs
o8008 15.5 0.6725 calib_obs
o8009 15.7 0.6725 calib_obs
o8010 20.0 0.6725 calib_obs
o8011 23.0 0.6725 calib_obs
o8012 22.0 0.6725 calib_obs
o8013 20.0 0.6725 calib_obs
o8014 17.9 0.6725 calib_obs
o8015 17.9 0.6725 calib_obs
o8016 17.7 0.6725 calib_obs
o8017 16.6 0.6725 calib_obs
o8018 14.3 0.6725 calib_obs
o8019 14.2 0.6725 calib_obs
o8020 15.1 0.6725 calib_obs
o8021 14.7 0.6725 calib_obs
o8022 13.8 0.6725 calib_obs
o8023 12.8 0.6725 calib_obs
o8024 11.2 0.6725 calib_obs
o8025 9.1 0.6725 calib_obs
o8026 8.4 0.6725 calib_obs
o8027 9.02 0.6725 calib_obs
o8028 10.51 0.6725 calib_obs
o8029 11.18 0.6725 calib_obs
o8030 11.0 0.6725 calib_obs
o8031 10.1 0.6725 calib_obs
o8032 8.59 0.6725 calib_obs
o8033 7.9 0.6725 calib_obs
o8034 8.09 0.6725 calib_obs
o8035 8.56 0.6725 calib_obs
o8036 10.58 0.6725 calib_obs
o8037 12.9 0.6725 calib_obs
o8038 13.1 0.6725 calib_obs
o8039 12.9 0.6725 calib_obs
o8040 14.3 0.6725 calib_obs
o8041 15.1 0.6725 calib_obs
o8042 16.0 0.6725 calib_obs
o8043 19.7 0.6725 calib_obs
o8044 22.0 0.6725 calib_obs
o8045 21.0 0.6725 calib_obs
o8046 19.1 0.6725 calib_obs
o8047 17.5 0.6725 calib_obs
o8048 15.1 0.6725 calib_obs
o8049 12.4 0.6725 calib_obs
o8050 9.9 0.6725 calib_obs
o8051 7.5 0.6725 calib_obs
o8052 6.8 0.6725 calib_obs
o8053 6.5 0.6725 calib_obs
o8054 6.01 0.6725 calib_obs
o8055 5.62 0.6725 calib_obs
o8056 5.19 0.6725 calib_obs
o8057 4.69 0.6725 calib_obs
o8058 4.11 0.6725 calib_obs
o8059 3.74 0.6725 calib_obs
o8060 3.42 0.6725 calib_obs