pcf
* control data
restart estimation
146 3653 2 0 3
1 1 double point 1 0 0
10.0 5.0 0.5 0.005 20
5.0 5.0 0.005 0
0.01
50 0.01 8 8 0.01 8
1 1 1
* parameter groups
paramGroup1 relative 0.01 0.001 switch 2.0 parabolic
paramGroup2 absolute 0.05 0.001 switch 2.0 parabolic
* parameter data
ttpi none relative 1.0 0.0 2.0 paramGroup1 1.0000 0.0000 1
lp none relative 0.9 0.8 1.0 paramGroup1 1.0000 0.0000 1
cevpam fixed relative 0.5 0.5 0.5 paramGroup1 1.0000 0.0000 1
cevpph fixed relative 45 45 45 paramGroup1 1.0000 0.0000 1
rrcs3 fixed relative 0.0002 0.0002 0.0002 paramGroup1 1.0000 0.0000 1
damp none relative 0.255 0.01 0.95 paramGroup1 1.0000 0.0000 1
rivvel none relative 0.75 0.3 1 paramGroup1 1.0000 0.0000 1
tcalt fixed relative 0.6 0.6 0.6 paramGroup1 1.0000 0.0000 1
qmean fixed relative 25 25 25 paramGroup1 1.0000 0.0000 1
epotdist fixed relative 3 3 3 paramGroup1 1.0000 0.0000 1
gldepi none relative 3.0 1.0 10.0 paramGroup1 1.0000 0.0000 1
gratp none relative 2.25 2 2.5 paramGroup1 1.0000 0.0000 1
gratk none relative 1.0 0.05 2.0 paramGroup1 1.0000 0.0000 1
sdnsnew fixed relative 0.145 0.1 0.19 paramGroup1 1.0000 0.0000 1
snowdensdt fixed relative 0.0014 0.0014 0.0014 paramGroup1 1.0000 0.0000 1
ttmp_10 fixed relative 1.0 0.0 2.0 paramGroup1 1.0000 0.0000 1
ttmp_11 none relative 1.0 0.0 2.0 paramGroup1 1.0000 0.0000 1
ttmp_12 fixed relative 1.0 0.0 2.0 paramGroup1 1.0000 0.0000 1
ttmp_13 none relative 1.0 0.0 2.0 paramGroup1 1.0000 0.0000 1
ttmp_14 none relative 1.0 -1.0 2.0 paramGroup2 1.0000 0.0000 1
ttmp_15 none relative 1.0 0.0 2.0 paramGroup1 1.0000 0.0000 1
ttmp_16 none relative 1.0 0.0 2.0 paramGroup1 1.0000 0.0000 1
ttmp_17 none relative 1.0 -2.0 2.0 paramGroup2 1.0000 0.0000 1
cmlt_10 fixed relative 2.6 0.2 5.0 paramGroup1 1.0000 0.0000 1
cmlt_11 none relative 2.6 0.2 8.0 paramGroup1 1.0000 0.0000 1
cmlt_12 fixed relative 2.6 0.2 5.0 paramGroup1 1.0000 0.0000 1
cmlt_13 none relative 2.6 0.2 5.0 paramGroup1 1.0000 0.0000 1
cmlt_14 none relative 2.6 0.2 5.0 paramGroup1 1.0000 0.0000 1
cmlt_15 none relative 2.6 0.2 5.0 paramGroup1 1.0000 0.0000 1
cmlt_16 none relative 2.6 0.2 5.0 paramGroup1 1.0000 0.0000 1
cmlt_17 none relative 2.6 0.2 8.0 paramGroup1 1.0000 0.0000 1
cevp_10 fixed relative 0.15 0.1 0.2 paramGroup1 1.0000 0.0000 1
cevp_11 none relative 0.15 0.1 0.2 paramGroup1 1.0000 0.0000 1
cevp_12 fixed relative 0.15 0.1 0.2 paramGroup1 1.0000 0.0000 1
cevp_13 none relative 0.15 0.1 0.2 paramGroup1 1.0000 0.0000 1
cevp_14 none relative 0.15 0.1 0.2 paramGroup1 1.0000 0.0000 1
cevp_15 none relative 0.15 0.1 0.2 paramGroup1 1.0000 0.0000 1
cevp_16 none relative 0.15 0.1 0.2 paramGroup1 1.0000 0.0000 1
cevp_17 none relative 0.15 0.1 0.2 paramGroup1 1.0000 0.0000 1
srrcs_10 fixed relative 0.15 0.1 0.2 paramGroup1 1.0000 0.0000 1
srrcs_11 none relative 0.15 0.1 0.2 paramGroup1 1.0000 0.0000 1
srrcs_12 fixed relative 0.15 0.1 0.2 paramGroup1 1.0000 0.0000 1
srrcs_13 none relative 0.15 0.1 0.2 paramGroup1 1.0000 0.0000 1
srrcs_14 none relative 0.15 0.1 0.2 paramGroup1 1.0000 0.0000 1
srrcs_15 none relative 0.15 0.1 0.2 paramGroup1 1.0000 0.0000 1
srrcs_16 none relative 0.15 0.1 0.2 paramGroup1 1.0000 0.0000 1
srrcs_17 none relative 0.15 0.1 0.2 paramGroup1 1.0000 0.0000 1
frost_10 fixed relative 2.0 2.0 2.0 paramGroup1 1.0000 0.0000 1
frost_11 fixed relative 2.0 2.0 2.0 paramGroup1 1.0000 0.0000 1
frost_12 fixed relative 2.0 2.0 2.0 paramGroup1 1.0000 0.0000 1
frost_13 fixed relative 2.0 2.0 2.0 paramGroup1 1.0000 0.0000 1
frost_14 fixed relative 2.0 2.0 2.0 paramGroup1 1.0000 0.0000 1
frost_15 fixed relative 2.0 2.0 2.0 paramGroup1 1.0000 0.0000 1
frost_16 fixed relative 2.0 2.0 2.0 paramGroup1 1.0000 0.0000 1
frost_17 fixed relative 2.0 2.0 2.0 paramGroup1 1.0000 0.0000 1
rrcs1_100 fixed relative 0.375 0.05 0.7 paramGroup1 1.0000 0.0000 1
rrcs1_101 none relative 0.375 0.05 0.7 paramGroup1 1.0000 0.0000 1
rrcs1_102 none relative 0.375 0.05 0.7 paramGroup1 1.0000 0.0000 1
rrcs1_103 none relative 0.375 0.05 0.7 paramGroup1 1.0000 0.0000 1
rrcs1_104 none relative 0.375 0.05 0.7 paramGroup1 1.0000 0.0000 1
rrcs1_105 none relative 0.375 0.05 1.0 paramGroup1 1.0000 0.0000 1
rrcs1_106 none relative 0.375 0.05 0.7 paramGroup1 1.0000 0.0000 1
rrcs2_100 fixed relative 0.0255 0.001 0.05 paramGroup1 1.0000 0.0000 1
rrcs2_101 none relative 0.0255 0.001 0.05 paramGroup1 1.0000 0.0000 1
rrcs2_102 none relative 0.0255 0.001 0.05 paramGroup1 1.0000 0.0000 1
rrcs2_103 none relative 0.0255 0.001 0.05 paramGroup1 1.0000 0.0000 1
rrcs2_104 none relative 0.0255 0.001 0.05 paramGroup1 1.0000 0.0000 1
rrcs2_105 none relative 0.0255 0.001 0.05 paramGroup1 1.0000 0.0000 1
rrcs2_106 none relative 0.0255 0.001 0.05 paramGroup1 1.0000 0.0000 1
trrcs_100 fixed relative 0.2 0.1 0.3 paramGroup1 1.0000 0.0000 1
trrcs_101 fixed relative 0.2 0.1 0.3 paramGroup1 1.0000 0.0000 1
trrcs_102 fixed relative 0.2 0.1 0.3 paramGroup1 1.0000 0.0000 1
trrcs_103 fixed relative 0.2 0.1 0.3 paramGroup1 1.0000 0.0000 1
trrcs_104 fixed relative 0.2 0.1 0.3 paramGroup1 1.0000 0.0000 1
trrcs_105 fixed relative 0.2 0.1 0.3 paramGroup1 1.0000 0.0000 1
trrcs_106 fixed relative 0.2 0.1 0.3 paramGroup1 1.0000 0.0000 1
mperc1_100 fixed relative 65 30 100 paramGroup1 1.0000 0.0000 1
mperc1_101 fixed relative 65 30 100 paramGroup1 1.0000 0.0000 1
mperc1_102 fixed relative 65 30 100 paramGroup1 1.0000 0.0000 1
mperc1_103 fixed relative 65 30 100 paramGroup1 1.0000 0.0000 1
mperc1_104 fixed relative 65 30 100 paramGroup1 1.0000 0.0000 1
mperc1_105 fixed relative 65 30 100 paramGroup1 1.0000 0.0000 1
mperc1_106 fixed relative 65 30 100 paramGroup1 1.0000 0.0000 1
mperc2_100 fixed relative 65 30 100 paramGroup1 1.0000 0.0000 1
mperc2_101 fixed relative 65 30 100 paramGroup1 1.0000 0.0000 1
mperc2_102 fixed relative 65 30 100 paramGroup1 1.0000 0.0000 1
mperc2_103 fixed relative 65 30 100 paramGroup1 1.0000 0.0000 1
mperc2_104 fixed relative 65 30 100 paramGroup1 1.0000 0.0000 1
mperc2_105 fixed relative 65 30 100 paramGroup1 1.0000 0.0000 1
mperc2_106 fixed relative 65 30 100 paramGroup1 1.0000 0.0000 1
sfrost_100 fixed relative 1.0 1.0 1.0 paramGroup1 1.0000 0.0000 1
sfrost_101 fixed relative 1.0 1.0 1.0 paramGroup1 1.0000 0.0000 1
sfrost_102 fixed relative 1.0 1.0 1.0 paramGroup1 1.0000 0.0000 1
sfrost_103 fixed relative 1.0 1.0 1.0 paramGroup1 1.0000 0.0000 1
sfrost_104 fixed relative 1.0 1.0 1.0 paramGroup1 1.0000 0.0000 1
sfrost_105 fixed relative 1.0 1.0 1.0 paramGroup1 1.0000 0.0000 1
sfrost_106 fixed relative 1.0 1.0 1.0 paramGroup1 1.0000 0.0000 1
macrate_100 fixed relative 0.2 0.1 0.3 paramGroup1 1.0000 0.0000 1
macrate_101 none relative 0.2 0.1 0.3 paramGroup1 1.0000 0.0000 1
macrate_102 none relative 0.2 0.1 0.3 paramGroup1 1.0000 0.0000 1
macrate_103 none relative 0.2 0.1 0.3 paramGroup1 1.0000 0.0000 1
macrate_104 none relative 0.2 0.1 0.3 paramGroup1 1.0000 0.0000 1
macrate_105 none relative 0.2 0.1 0.3 paramGroup1 1.0000 0.0000 1
macrate_106 none relative 0.2 0.1 0.3 paramGroup1 1.0000 0.0000 1
mactrinf_100 fixed relative 30 10 50 paramGroup1 1.0000 0.0000 1
mactrinf_101 none relative 30 10 50 paramGroup1 1.0000 0.0000 1
mactrinf_102 none relative 30 10 50 paramGroup1 1.0000 0.0000 1
mactrinf_103 none relative 30 10 50 paramGroup1 1.0000 0.0000 1
mactrinf_104 none relative 30 10 50 paramGroup1 1.0000 0.0000 1
mactrinf_105 none relative 30 10 50 paramGroup1 1.0000 0.0000 1
mactrinf_106 none relative 30 10 50 paramGroup1 1.0000 0.0000 1
mactrsm_100 fixed relative 0.675 0.5 0.85 paramGroup1 1.0000 0.0000 1
mactrsm_101 fixed relative 0.675 0.5 0.85 paramGroup1 1.0000 0.0000 1
mactrsm_102 fixed relative 0.675 0.5 0.85 paramGroup1 1.0000 0.0000 1
mactrsm_103 fixed relative 0.675 0.5 0.85 paramGroup1 1.0000 0.0000 1
mactrsm_104 fixed relative 0.675 0.5 0.85 paramGroup1 1.0000 0.0000 1
mactrsm_105 fixed relative 0.675 0.5 0.85 paramGroup1 1.0000 0.0000 1
mactrsm_106 fixed relative 0.675 0.5 0.85 paramGroup1 1.0000 0.0000 1
srrate_100 fixed relative 0.15 0.1 0.2 paramGroup1 1.0000 0.0000 1
srrate_101 none relative 0.15 0.1 0.2 paramGroup1 1.0000 0.0000 1
srrate_102 none relative 0.15 0.1 0.2 paramGroup1 1.0000 0.0000 1
srrate_103 none relative 0.15 0.1 0.2 paramGroup1 1.0000 0.0000 1
srrate_104 none relative 0.15 0.1 0.2 paramGroup1 1.0000 0.0000 1
srrate_105 none relative 0.15 0.1 0.2 paramGroup1 1.0000 0.0000 1
srrate_106 none relative 0.15 0.1 0.2 paramGroup1 1.0000 0.0000 1
wcwp_100 fixed relative 0.07 0.04 0.1 paramGroup1 1.0000 0.0000 1
wcwp_101 none relative 0.07 0.04 0.1 paramGroup1 1.0000 0.0000 1
wcwp_102 none relative 0.07 0.04 0.1 paramGroup1 1.0000 0.0000 1
wcwp_103 none relative 0.07 0.04 0.1 paramGroup1 1.0000 0.0000 1
wcwp_104 none relative 0.07 0.04 0.1 paramGroup1 1.0000 0.0000 1
wcwp_105 none relative 0.07 0.04 0.1 paramGroup1 1.0000 0.0000 1
wcwp_106 none relative 0.07 0.04 0.1 paramGroup1 1.0000 0.0000 1
wcfc_100 fixed relative 0.25 0.1 0.4 paramGroup1 1.0000 0.0000 1
wcfc_101 none relative 0.25 0.1 0.4 paramGroup1 1.0000 0.0000 1
wcfc_102 none relative 0.25 0.1 0.5 paramGroup1 1.0000 0.0000 1
wcfc_103 none relative 0.25 0.1 0.4 paramGroup1 1.0000 0.0000 1
wcfc_104 none relative 0.25 0.1 0.4 paramGroup1 1.0000 0.0000 1
wcfc_105 none relative 0.25 0.1 0.4 paramGroup1 1.0000 0.0000 1
wcfc_106 none relative 0.25 0.1 0.4 paramGroup1 1.0000 0.0000 1
wcep_100 fixed relative 0.055 0.01 0.1 paramGroup1 1.0000 0.0000 1
wcep_101 none relative 0.055 0.01 0.1 paramGroup1 1.0000 0.0000 1
wcep_102 none relative 0.055 0.01 0.1 paramGroup1 1.0000 0.0000 1
wcep_103 none relative 0.055 0.01 0.1 paramGroup1 1.0000 0.0000 1
wcep_104 none relative 0.055 0.01 0.35 paramGroup1 1.0000 0.0000 1
wcep_105 none relative 0.055 0.01 0.35 paramGroup1 1.0000 0.0000 1
wcep_106 none relative 0.055 0.01 0.1 paramGroup1 1.0000 0.0000 1
* observation groups
warmup_obs
calib_obs
valid_obs
* observation data
o102285 4.19 0.0 warmup_obs
o102286 5.09 0.0 warmup_obs
o102287 4.79 0.0 warmup_obs
o102288 3.35 0.0 warmup_obs
o102289 1.75 0.0 warmup_obs
o102290 0.91 0.0 warmup_obs
o102291 0.56 0.0 warmup_obs
o102292 0.48 0.0 warmup_obs
o102293 0.48 0.0 warmup_obs
o102294 0.45 0.0 warmup_obs
o102295 0.42 0.0 warmup_obs
o102296 0.39 0.0 warmup_obs
o102297 0.34 0.0 warmup_obs
o102298 0.34 0.0 warmup_obs
o102299 0.32 0.0 warmup_obs
o102300 0.32 0.0 warmup_obs
o102301 0.32 0.0 warmup_obs
o102302 0.32 0.0 warmup_obs
o102303 0.32 0.0 warmup_obs
o102304 0.31 0.0 warmup_obs
o102305 0.3 0.0 warmup_obs
o102306 0.29 0.0 warmup_obs
o102307 0.29 0.0 warmup_obs
o102308 0.29 0.0 warmup_obs
o102309 0.3 0.0 warmup_obs
o102310 0.55 0.0 warmup_obs
o102311 2.35 0.0 warmup_obs
o102312 8.22 0.0 warmup_obs
o102313 11.09 0.0 warmup_obs
o102314 17.35 0.0 warmup_obs
o102315 16.06 0.0 warmup_obs
o102316 10.01 0.0 warmup_obs
o102317 6.23 0.0 warmup_obs
o102318 5.24 0.0 warmup_obs
o102319 4.24 0.0 warmup_obs
o102320 3.27 0.0 warmup_obs
o102321 2.6 0.0 warmup_obs
o102322 6.21 0.0 warmup_obs
o102323 17.44 0.0 warmup_obs
o102324 25.28 0.0 warmup_obs
o102325 31.74 0.0 warmup_obs
o102326 32.53 0.0 warmup_obs
o102327 29.65 0.0 warmup_obs
o102328 20.68 0.0 warmup_obs
o102329 15.56 0.0 warmup_obs
o102330 11.71 0.0 warmup_obs
o102331 8.96 0.0 warmup_obs
o102332 9.02 0.0 warmup_obs
o102333 8.49 0.0 warmup_obs
o102334 6.81 0.0 warmup_obs
o102335 5.48 0.0 warmup_obs
o102336 4.74 0.0 warmup_obs
o102337 5.3 0.0 warmup_obs
o102338 4.48 0.0 warmup_obs
o102339 3.59 0.0 warmup_obs
o102340 3.67 0.0 warmup_obs
o102341 3.23 0.0 warmup_obs
o102342 2.51 0.0 warmup_obs
o102343 2.15 0.0 warmup_obs
o102344 1.91 0.0 warmup_obs
o102345 1.4 0.0 warmup_obs
o102346 1.27 0.0 warmup_obs
o102347 1.11 0.0 warmup_obs
o102348 1.06 0.0 warmup_obs
o102349 1.01 0.0 warmup_obs
o102350 0.99 0.0 warmup_obs
o102351 1.01 0.0 warmup_obs
o102352 1.35 0.0 warmup_obs
o102353 1.46 0.0 warmup_obs
o102354 1.51 0.0 warmup_obs
o102355 2.27 0.0 warmup_obs
o102356 2.75 0.0 warmup_obs
o102357 1.97 0.0 warmup_obs
o102358 1.91 0.0 warmup_obs
o102359 3.71 0.0 warmup_obs
o102360 7.19 0.0 warmup_obs
o102361 8.54 0.0 warmup_obs
o102362 6.74 0.0 warmup_obs
o102363 3.47 0.0 warmup_obs
o102364 2.75 0.0 warmup_obs
o102365 2.87 0.0 warmup_obs
o102366 1.96 0.0 warmup_obs
o102367 1.67 0.0 warmup_obs
o102368 1.43 0.0 warmup_obs
o102369 1.51 0.0 warmup_obs
o102370 2.87 0.0 warmup_obs
o102371 4.07 0.0 warmup_obs
o102372 3.95 0.0 warmup_obs
o102373 4.16 0.0 warmup_obs
o102374 5.14 0.0 warmup_obs
o102375 5.54 0.0 warmup_obs
o102376 4.71 0.0 warmup_obs
o102377 4.34 0.0 warmup_obs
o102378 3.88 0.0 warmup_obs
o102379 4.07 0.0 warmup_obs
o102380 3.95 0.0 warmup_obs
o102381 4.63 0.0 warmup_obs
o102382 5.69 0.0 warmup_obs
o102383 8.09 0.0 warmup_obs
o102384 7.19 0.0 warmup_obs
o102385 5.54 0.0 warmup_obs
o102386 4.21 0.0 warmup_obs
o102387 3.47 0.0 warmup_obs
o102388 2.99 0.0 warmup_obs
o102389 2.51 0.0 warmup_obs
o102390 1.99 0.0 warmup_obs
o102391 1.91 0.0 warmup_obs
o102392 1.89 0.0 warmup_obs
o102393 2.37 0.0 warmup_obs
o102394 2.39 0.0 warmup_obs
o102395 2.03 0.0 warmup_obs
o102396 1.83 0.0 warmup_obs
o102397 1.59 0.0 warmup_obs
o102398 1.43 0.0 warmup_obs
o102399 1.19 0.0 warmup_obs
o102400 1.61 0.0 warmup_obs
o102401 5.69 0.0 warmup_obs
o102402 6.54 0.0 warmup_obs
o102403 5.54 0.0 warmup_obs
o102404 6.89 0.0 warmup_obs
o102405 5.99 0.0 warmup_obs
o102406 4.07 0.0 warmup_obs
o102407 3.11 0.0 warmup_obs
o102408 2.43 0.0 warmup_obs
o102409 1.96 0.0 warmup_obs
o102410 1.62 0.0 warmup_obs
o102411 1.36 0.0 warmup_obs
o102412 1.13 0.0 warmup_obs
o102413 0.99 0.0 warmup_obs
o102414 0.91 0.0 warmup_obs
o102415 0.8 0.0 warmup_obs
o102416 0.72 0.0 warmup_obs
o102417 0.61 0.0 warmup_obs
o102418 0.59 0.0 warmup_obs
o102419 0.57 0.0 warmup_obs
o102420 0.69 0.0 warmup_obs
o102421 2.79 0.0 warmup_obs
o102422 2.43 0.0 warmup_obs
o102423 1.71 0.0 warmup_obs
o102424 1.35 0.0 warmup_obs
o102425 1.08 0.0 warmup_obs
o102426 0.92 0.0 warmup_obs
o102427 0.81 0.0 warmup_obs
o102428 0.7 0.0 warmup_obs
o102429 0.61 0.0 warmup_obs
o102430 0.56 0.0 warmup_obs
o102431 0.65 0.0 warmup_obs
o102432 8.84 0.0 warmup_obs
o102433 10.1 0.0 warmup_obs
o102434 5.68 0.0 warmup_obs
o102435 3.81 0.0 warmup_obs
o102436 2.84 0.0 warmup_obs
o102437 2.12 0.0 warmup_obs
o102438 1.72 0.0 warmup_obs
o102439 1.35 0.0 warmup_obs
o102440 1.15 0.0 warmup_obs
o102441 0.98 0.0 warmup_obs
o102442 0.79 0.0 warmup_obs
o102443 0.71 0.0 warmup_obs
o102444 0.67 0.0 warmup_obs
o102445 0.53 0.0 warmup_obs
o102446 0.43 0.0 warmup_obs
o102447 0.34 0.0 warmup_obs
o102448 0.34 0.0 warmup_obs
o102449 0.32 0.0 warmup_obs
o102450 0.3 0.0 warmup_obs
o102451 0.27 0.0 warmup_obs
o102452 0.29 0.0 warmup_obs
o102453 0.74 0.0 warmup_obs
o102454 0.59 0.0 warmup_obs
o102455 1.22 0.0 warmup_obs
o102456 1.3 0.0 warmup_obs
o102457 0.88 0.0 warmup_obs
o102458 1.04 0.0 warmup_obs
o102459 0.76 0.0 warmup_obs
o102460 0.61 0.0 warmup_obs
o102461 0.51 0.0 warmup_obs
o102462 0.47 0.0 warmup_obs
o102463 0.42 0.0 warmup_obs
o102464 0.4 0.0 warmup_obs
o102465 0.33 0.0 warmup_obs
o102466 0.31 0.0 warmup_obs
o102467 0.3 0.0 warmup_obs
o102468 0.28 0.0 warmup_obs
o102469 0.32 0.0 warmup_obs
o102470 0.36 0.0 warmup_obs
o102471 0.32 0.0 warmup_obs
o102472 0.28 0.0 warmup_obs
o102473 0.25 0.0 warmup_obs
o102474 0.25 0.0 warmup_obs
o102475 0.24 0.0 warmup_obs
o102476 0.21 0.0 warmup_obs
o102477 0.19 0.0 warmup_obs
o102478 0.18 0.0 warmup_obs
o102479 0.19 0.0 warmup_obs
o102480 0.18 0.0 warmup_obs
o102481 0.17 0.0 warmup_obs
o102482 0.2 0.0 warmup_obs
o102483 0.21 0.0 warmup_obs
o102484 0.2 0.0 warmup_obs
o102485 0.16 0.0 warmup_obs
o102486 0.15 0.0 warmup_obs
o102487 0.13 0.0 warmup_obs
o102488 0.11 0.0 warmup_obs
o102489 0.11 0.0 warmup_obs
o102490 0.1 0.0 warmup_obs
o102491 0.1 0.0 warmup_obs
o102492 0.08 0.0 warmup_obs
o102493 0.08 0.0 warmup_obs
o102494 0.07 0.0 warmup_obs
o102495 0.06 0.0 warmup_obs
o102496 0.06 0.0 warmup_obs
o102497 0.06 0.0 warmup_obs
o102498 0.08 0.0 warmup_obs
o102499 0.07 0.0 warmup_obs
o102500 0.07 0.0 warmup_obs
o102501 0.08 0.0 warmup_obs
o102502 0.14 0.0 warmup_obs
o102503 0.16 0.0 warmup_obs
o102504 0.2 0.0 warmup_obs
o102505 0.32 0.0 warmup_obs
o102506 0.25 0.0 warmup_obs
o102507 0.21 0.0 warmup_obs
o102508 0.19 0.0 warmup_obs
o102509 0.18 0.0 warmup_obs
o102510 0.18 0.0 warmup_obs
o102511 0.21 0.0 warmup_obs
o102512 0.22 0.0 warmup_obs
o102513 0.28 0.0 warmup_obs
o102514 0.31 0.0 warmup_obs
o102515 0.29 0.0 warmup_obs
o102516 0.25 0.0 warmup_obs
o102517 0.23 0.0 warmup_obs
o102518 0.22 0.0 warmup_obs
o102519 0.23 0.0 warmup_obs
o102520 0.25 0.0 warmup_obs
o102521 0.25 0.0 warmup_obs
o102522 0.25 0.0 warmup_obs
o102523 0.25 0.0 warmup_obs
o102524 0.26 0.0 warmup_obs
o102525 0.25 0.0 warmup_obs
o102526 0.25 0.0 warmup_obs
o102527 0.26 0.0 warmup_obs
o102528 0.28 0.0 warmup_obs
o102529 0.26 0.0 warmup_obs
o102530 0.24 0.0 warmup_obs
o102531 0.22 0.0 warmup_obs
o102532 0.24 0.0 warmup_obs
o102533 0.26 0.0 warmup_obs
o102534 0.28 0.0 warmup_obs
o102535 0.29 0.0 warmup_obs
o102536 0.26 0.0 warmup_obs
o102537 0.23 0.0 warmup_obs
o102538 0.22 0.0 warmup_obs
o102539 0.21 0.0 warmup_obs
o102540 0.21 0.0 warmup_obs
o102541 0.22 0.0 warmup_obs
o102542 0.22 0.0 warmup_obs
o102543 0.21 0.0 warmup_obs
o102544 0.21 0.0 warmup_obs
o102545 0.2 0.0 warmup_obs
o102546 0.2 0.0 warmup_obs
o102547 0.22 0.0 warmup_obs
o102548 0.24 0.0 warmup_obs
o102549 0.24 0.0 warmup_obs
o102550 0.23 0.0 warmup_obs
o102551 0.23 0.0 warmup_obs
o102552 0.23 0.0 warmup_obs
o102553 0.24 0.0 warmup_obs
o102554 0.22 0.0 warmup_obs
o102555 0.22 0.0 warmup_obs
o102556 0.22 0.0 warmup_obs
o102557 0.58 0.0 warmup_obs
o102558 1.63 0.0 warmup_obs
o102559 1.59 0.0 warmup_obs
o102560 1.17 0.0 warmup_obs
o102561 0.96 0.0 warmup_obs
o102562 0.86 0.0 warmup_obs
o102563 0.77 0.0 warmup_obs
o102564 0.68 0.0 warmup_obs
o102565 0.61 0.0 warmup_obs
o102566 0.55 0.0 warmup_obs
o102567 0.51 0.0 warmup_obs
o102568 0.47 0.0 warmup_obs
o102569 0.46 0.0 warmup_obs
o102570 0.46 0.0 warmup_obs
o102571 0.42 0.0 warmup_obs
o102572 0.4 0.0 warmup_obs
o102573 0.39 0.0 warmup_obs
o102574 0.38 0.0 warmup_obs
o102575 0.36 0.0 warmup_obs
o102576 0.35 0.0 warmup_obs
o102577 0.34 0.0 warmup_obs
o102578 0.33 0.0 warmup_obs
o102579 0.33 0.0 warmup_obs
o102580 0.32 0.0 warmup_obs
o102581 0.32 0.0 warmup_obs
o102582 0.31 0.0 warmup_obs
o102583 0.31 0.0 warmup_obs
o102584 0.31 0.0 warmup_obs
o102585 0.32 0.0 warmup_obs
o102586 0.34 0.0 warmup_obs
o102587 0.37 0.0 warmup_obs
o102588 0.4 0.0 warmup_obs
o102589 0.39 0.0 warmup_obs
o102590 0.37 0.0 warmup_obs
o102591 0.35 0.0 warmup_obs
o102592 0.34 0.0 warmup_obs
o102593 0.34 0.0 warmup_obs
o102594 0.31 0.0 warmup_obs
o102595 0.29 0.0 warmup_obs
o102596 0.27 0.0 warmup_obs
o102597 0.26 0.0 warmup_obs
o102598 0.26 0.0 warmup_obs
o102599 0.25 0.0 warmup_obs
o102600 0.24 0.0 warmup_obs
o102601 0.24 0.0 warmup_obs
o102602 0.24 0.0 warmup_obs
o102603 0.25 0.0 warmup_obs
o102604 0.25 0.0 warmup_obs
o102605 0.27 0.0 warmup_obs
o102606 0.31 0.0 warmup_obs
o102607 0.37 0.0 warmup_obs
o102608 2.87 0.0 warmup_obs
o102609 3.96 0.0 warmup_obs
o102610 2.96 0.0 warmup_obs
o102611 3.11 0.0 warmup_obs
o102612 3.05 0.0 warmup_obs
o102613 3.21 0.0 warmup_obs
o102614 4.15 0.0 warmup_obs
o102615 4.26 0.0 warmup_obs
o102616 5.29 0.0 warmup_obs
o102617 3.97 0.0 warmup_obs
o102618 3.99 0.0 warmup_obs
o102619 3.14 0.0 warmup_obs
o102620 2.21 0.0 warmup_obs
o102621 1.92 0.0 warmup_obs
o102622 1.51 0.0 warmup_obs
o102623 1.32 0.0 warmup_obs
o102624 1.43 0.0 warmup_obs
o102625 1.41 0.0 warmup_obs
o102626 1.11 0.0 warmup_obs
o102627 1.23 0.0 warmup_obs
o102628 1.37 0.0 warmup_obs
o102629 1.19 0.0 warmup_obs
o102630 0.94 0.0 warmup_obs
o102631 0.76 0.0 warmup_obs
o102632 0.67 0.0 warmup_obs
o102633 0.63 0.0 warmup_obs
o102634 0.62 0.0 warmup_obs
o102635 0.57 0.0 warmup_obs
o102636 0.57 0.0 warmup_obs
o102637 0.57 0.0 warmup_obs
o102638 0.44 0.0 warmup_obs
o102639 0.46 0.0 warmup_obs
o102640 0.53 0.0 warmup_obs
o102641 0.6 0.0 warmup_obs
o102642 0.57 0.0 warmup_obs
o102643 0.66 0.0 warmup_obs
o102644 1.06 0.0 warmup_obs
o102645 0.98 0.0 warmup_obs
o102646 0.92 0.0 warmup_obs
o102647 0.83 0.0 warmup_obs
o102648 0.71 0.0 warmup_obs
o102649 0.69 0.0 warmup_obs
o102650 0.81 0.0 warmup_obs
o102651 0.96 0.53375 calib_obs
o102652 0.86 0.53375 calib_obs
o102653 0.71 0.53375 calib_obs
o102654 0.61 0.53375 calib_obs
o102655 0.45 0.53375 calib_obs
o102656 0.32 0.53375 calib_obs
o102657 0.3 0.53375 calib_obs
o102658 0.28 1.6012499999999998 calib_obs
o102659 0.26 1.6012499999999998 calib_obs
o102660 0.32 0.53375 calib_obs
o102661 0.32 0.53375 calib_obs
o102662 0.3 0.53375 calib_obs
o102663 0.3 0.53375 calib_obs
o102664 0.3 0.53375 calib_obs
o102665 0.32 0.53375 calib_obs
o102666 0.3 0.53375 calib_obs
o102667 0.28 1.6012499999999998 calib_obs
o102668 0.28 1.6012499999999998 calib_obs
o102669 0.28 1.6012499999999998 calib_obs
o102670 0.28 1.6012499999999998 calib_obs
o102671 0.28 1.6012499999999998 calib_obs
o102672 0.26 1.6012499999999998 calib_obs
o102673 0.26 1.6012499999999998 calib_obs
o102674 0.28 1.6012499999999998 calib_obs
o102675 0.26 1.6012499999999998 calib_obs
o102676 0.28 1.6012499999999998 calib_obs
o102677 0.39 0.53375 calib_obs
o102678 0.32 0.53375 calib_obs
o102679 0.3 0.53375 calib_obs
o102680 0.3 0.53375 calib_obs
o102681 0.3 0.53375 calib_obs
o102682 0.28 1.6012499999999998 calib_obs
o102683 0.3 0.53375 calib_obs
o102684 0.3 0.53375 calib_obs
o102685 0.3 0.53375 calib_obs
o102686 0.3 0.53375 calib_obs
o102687 0.3 0.53375 calib_obs
o102688 0.28 1.6012499999999998 calib_obs
o102689 0.26 1.6012499999999998 calib_obs
o102690 0.26 1.6012499999999998 calib_obs
o102691 0.2 1.6012499999999998 calib_obs
o102692 0.18 1.6012499999999998 calib_obs
o102693 0.24 1.6012499999999998 calib_obs
o102694 0.2 1.6012499999999998 calib_obs
o102695 0.22 1.6012499999999998 calib_obs
o102696 0.24 1.6012499999999998 calib_obs
o102697 0.22 1.6012499999999998 calib_obs
o102698 0.24 1.6012499999999998 calib_obs
o102699 0.24 1.6012499999999998 calib_obs
o102700 0.42 0.53375 calib_obs
o102701 1.91 0.53375 calib_obs
o102702 0.66 0.53375 calib_obs
o102703 0.39 0.53375 calib_obs
o102704 0.3 0.53375 calib_obs
o102705 0.28 1.6012499999999998 calib_obs
o102706 0.28 1.6012499999999998 calib_obs
o102707 0.28 1.6012499999999998 calib_obs
o102708 0.3 0.53375 calib_obs
o102709 0.34 0.53375 calib_obs
o102710 6.29 0.53375 calib_obs
o102711 12.73 0.53375 calib_obs
o102712 7.79 0.53375 calib_obs
o102713 3.59 0.53375 calib_obs
o102714 2.07 0.53375 calib_obs
o102715 1.51 0.53375 calib_obs
o102716 1.01 0.53375 calib_obs
o102717 0.81 0.53375 calib_obs
o102718 0.76 0.53375 calib_obs
o102719 1.01 0.53375 calib_obs
o102720 2.07 0.53375 calib_obs
o102721 3.23 0.53375 calib_obs
o102722 3.35 0.53375 calib_obs
o102723 4.34 0.53375 calib_obs
o102724 19.19 0.53375 calib_obs
o102725 15.96 0.53375 calib_obs
o102726 15.11 0.53375 calib_obs
o102727 19.87 0.53375 calib_obs
o102728 12.39 0.53375 calib_obs
o102729 7.94 0.53375 calib_obs
o102730 6.29 0.53375 calib_obs
o102731 6.89 0.53375 calib_obs
o102732 5.69 0.53375 calib_obs
o102733 3.83 0.53375 calib_obs
o102734 3.11 0.53375 calib_obs
o102735 3.11 0.53375 calib_obs
o102736 3.83 0.53375 calib_obs
o102737 3.83 0.53375 calib_obs
o102738 2.99 0.53375 calib_obs
o102739 2.39 0.53375 calib_obs
o102740 2.07 0.53375 calib_obs
o102741 1.99 0.53375 calib_obs
o102742 2.75 0.53375 calib_obs
o102743 3.47 0.53375 calib_obs
o102744 3.23 0.53375 calib_obs
o102745 3.47 0.53375 calib_obs
o102746 3.59 0.53375 calib_obs
o102747 3.11 0.53375 calib_obs
o102748 2.75 0.53375 calib_obs
o102749 2.39 0.53375 calib_obs
o102750 2.39 0.53375 calib_obs
o102751 2.87 0.53375 calib_obs
o102752 2.75 0.53375 calib_obs
o102753 2.39 0.53375 calib_obs
o102754 2.07 0.53375 calib_obs
o102755 1.83 0.53375 calib_obs
o102756 1.59 0.53375 calib_obs
o102757 1.43 0.53375 calib_obs
o102758 1.27 0.53375 calib_obs
o102759 1.11 0.53375 calib_obs
o102760 1.06 0.53375 calib_obs
o102761 1.35 0.53375 calib_obs
o102762 1.62 0.53375 calib_obs
o102763 1.91 0.53375 calib_obs
o102764 1.82 0.53375 calib_obs
o102765 1.81 0.53375 calib_obs
o102766 2.88 0.53375 calib_obs
o102767 2.53 0.53375 calib_obs
o102768 2.02 0.53375 calib_obs
o102769 1.74 0.53375 calib_obs
o102770 1.69 0.53375 calib_obs
o102771 1.97 0.53375 calib_obs
o102772 1.83 0.53375 calib_obs
o102773 1.59 0.53375 calib_obs
o102774 1.34 0.53375 calib_obs
o102775 1.25 0.53375 calib_obs
o102776 1.17 0.53375 calib_obs
o102777 1.08 0.53375 calib_obs
o102778 1.02 0.53375 calib_obs
o102779 0.96 0.53375 calib_obs
o102780 0.94 0.53375 calib_obs
o102781 0.93 0.53375 calib_obs
o102782 0.86 0.53375 calib_obs
o102783 0.78 0.53375 calib_obs
o102784 0.73 0.53375 calib_obs
o102785 0.8 0.53375 calib_obs
o102786 0.8 0.53375 calib_obs
o102787 0.75 0.53375 calib_obs
o102788 0.73 0.53375 calib_obs
o102789 0.72 0.53375 calib_obs
o102790 0.68 0.53375 calib_obs
o102791 0.61 0.53375 calib_obs
o102792 0.6 0.53375 calib_obs
o102793 0.54 0.53375 calib_obs
o102794 0.51 0.53375 calib_obs
o102795 0.49 0.53375 calib_obs
o102796 0.47 0.53375 calib_obs
o102797 0.4 0.53375 calib_obs
o102798 0.36 0.53375 calib_obs
o102799 0.36 0.53375 calib_obs
o102800 0.35 0.53375 calib_obs
o102801 0.65 0.53375 calib_obs
o102802 0.86 0.53375 calib_obs
o102803 0.65 0.53375 calib_obs
o102804 0.5 0.53375 calib_obs
o102805 0.46 0.53375 calib_obs
o102806 0.47 0.53375 calib_obs
o102807 0.67 0.53375 calib_obs
o102808 0.58 0.53375 calib_obs
o102809 0.52 0.53375 calib_obs
o102810 0.61 0.53375 calib_obs
o102811 0.7 0.53375 calib_obs
o102812 0.68 0.53375 calib_obs
o102813 0.63 0.53375 calib_obs
o102814 0.96 0.53375 calib_obs
o102815 1.56 0.53375 calib_obs
o102816 1.32 0.53375 calib_obs
o102817 0.96 0.53375 calib_obs
o102818 0.75 0.53375 calib_obs
o102819 0.61 0.53375 calib_obs
o102820 0.52 0.53375 calib_obs
o102821 0.5 0.53375 calib_obs
o102822 0.46 0.53375 calib_obs
o102823 0.42 0.53375 calib_obs
o102824 0.37 0.53375 calib_obs
o102825 0.33 0.53375 calib_obs
o102826 0.35 0.53375 calib_obs
o102827 0.41 0.53375 calib_obs
o102828 0.43 0.53375 calib_obs
o102829 0.43 0.53375 calib_obs
o102830 0.34 0.53375 calib_obs
o102831 0.29 1.6012499999999998 calib_obs
o102832 0.27 1.6012499999999998 calib_obs
o102833 0.25 1.6012499999999998 calib_obs
o102834 0.24 1.6012499999999998 calib_obs
o102835 0.26 1.6012499999999998 calib_obs
o102836 0.44 0.53375 calib_obs
o102837 0.44 0.53375 calib_obs
o102838 0.38 0.53375 calib_obs
o102839 0.31 0.53375 calib_obs
o102840 0.27 1.6012499999999998 calib_obs
o102841 0.24 1.6012499999999998 calib_obs
o102842 0.24 1.6012499999999998 calib_obs
o102843 0.27 1.6012499999999998 calib_obs
o102844 0.26 1.6012499999999998 calib_obs
o102845 0.25 1.6012499999999998 calib_obs
o102846 0.23 1.6012499999999998 calib_obs
o102847 0.2 1.6012499999999998 calib_obs
o102848 0.18 1.6012499999999998 calib_obs
o102849 0.17 1.6012499999999998 calib_obs
o102850 0.17 1.6012499999999998 calib_obs
o102851 0.18 1.6012499999999998 calib_obs
o102852 0.2 1.6012499999999998 calib_obs
o102853 0.19 1.6012499999999998 calib_obs
o102854 0.17 1.6012499999999998 calib_obs
o102855 0.15 1.6012499999999998 calib_obs
o102856 0.14 1.6012499999999998 calib_obs
o102857 0.13 1.6012499999999998 calib_obs
o102858 0.13 1.6012499999999998 calib_obs
o102859 0.13 1.6012499999999998 calib_obs
o102860 0.2 1.6012499999999998 calib_obs
o102861 0.31 0.53375 calib_obs
o102862 0.31 0.53375 calib_obs
o102863 0.29 1.6012499999999998 calib_obs
o102864 0.26 1.6012499999999998 calib_obs
o102865 0.27 1.6012499999999998 calib_obs
o102866 0.29 1.6012499999999998 calib_obs
o102867 0.35 0.53375 calib_obs
o102868 0.61 0.53375 calib_obs
o102869 1.24 0.53375 calib_obs
o102870 1.1 0.53375 calib_obs
o102871 0.83 0.53375 calib_obs
o102872 0.6 0.53375 calib_obs
o102873 0.49 0.53375 calib_obs
o102874 0.45 0.53375 calib_obs
o102875 0.45 0.53375 calib_obs
o102876 0.43 0.53375 calib_obs
o102877 0.37 0.53375 calib_obs
o102878 0.34 0.53375 calib_obs
o102879 0.33 0.53375 calib_obs
o102880 0.31 0.53375 calib_obs
o102881 0.31 0.53375 calib_obs
o102882 0.31 0.53375 calib_obs
o102883 0.3 0.53375 calib_obs
o102884 0.3 0.53375 calib_obs
o102885 0.3 0.53375 calib_obs
o102886 0.29 1.6012499999999998 calib_obs
o102887 0.28 1.6012499999999998 calib_obs
o102888 0.27 1.6012499999999998 calib_obs
o102889 0.27 1.6012499999999998 calib_obs
o102890 0.26 1.6012499999999998 calib_obs
o102891 0.25 1.6012499999999998 calib_obs
o102892 0.25 1.6012499999999998 calib_obs
o102893 0.29 1.6012499999999998 calib_obs
o102894 0.48 0.53375 calib_obs
o102895 0.49 0.53375 calib_obs
o102896 0.48 0.53375 calib_obs
o102897 0.43 0.53375 calib_obs
o102898 0.39 0.53375 calib_obs
o102899 0.34 0.53375 calib_obs
o102900 0.31 0.53375 calib_obs
o102901 0.3 0.53375 calib_obs
o102902 0.31 0.53375 calib_obs
o102903 0.39 0.53375 calib_obs
o102904 0.51 0.53375 calib_obs
o102905 0.52 0.53375 calib_obs
o102906 0.51 0.53375 calib_obs
o102907 0.47 0.53375 calib_obs
o102908 0.44 0.53375 calib_obs
o102909 0.42 0.53375 calib_obs
o102910 0.4 0.53375 calib_obs
o102911 0.38 0.53375 calib_obs
o102912 0.38 0.53375 calib_obs
o102913 0.39 0.53375 calib_obs
o102914 0.39 0.53375 calib_obs
o102915 0.39 0.53375 calib_obs
o102916 0.38 0.53375 calib_obs
o102917 0.37 0.53375 calib_obs
o102918 0.35 0.53375 calib_obs
o102919 0.34 0.53375 calib_obs
o102920 0.33 0.53375 calib_obs
o102921 0.33 0.53375 calib_obs
o102922 0.33 0.53375 calib_obs
o102923 0.33 0.53375 calib_obs
o102924 0.33 0.53375 calib_obs
o102925 0.33 0.53375 calib_obs
o102926 0.41 0.53375 calib_obs
o102927 1.38 0.53375 calib_obs
o102928 2.24 0.53375 calib_obs
o102929 2.32 0.53375 calib_obs
o102930 1.95 0.53375 calib_obs
o102931 2.19 0.53375 calib_obs
o102932 4.23 0.53375 calib_obs
o102933 7.04 0.53375 calib_obs
o102934 7.02 0.53375 calib_obs
o102935 6.04 0.53375 calib_obs
o102936 11.78 0.53375 calib_obs
o102937 12.93 0.53375 calib_obs
o102938 12.55 0.53375 calib_obs
o102939 11.54 0.53375 calib_obs
o102940 10.35 0.53375 calib_obs
o102941 8.69 0.53375 calib_obs
o102942 7.94 0.53375 calib_obs
o102943 6.74 0.53375 calib_obs
o102944 5.54 0.53375 calib_obs
o102945 4.79 0.53375 calib_obs
o102946 5.02 0.53375 calib_obs
o102947 2.61 0.53375 calib_obs