pcf
* control data
restart estimation
146 3653 2 0 3
1 1 double point 1 0 0
10.0 5.0 0.5 0.005 20
5.0 5.0 0.005 0
0.01
50 0.01 8 8 0.01 8
1 1 1
* parameter groups
paramGroup1 relative 0.01 0.001 switch 2.0 parabolic
paramGroup2 absolute 0.05 0.001 switch 2.0 parabolic
* parameter data
ttpi none relative 1.0 0.0 2.0 paramGroup1 1.0000 0.0000 1
lp none relative 0.9 0.8 1.0 paramGroup1 1.0000 0.0000 1
cevpam fixed relative 0.5 0.5 0.5 paramGroup1 1.0000 0.0000 1
cevpph fixed relative 45 45 45 paramGroup1 1.0000 0.0000 1
rrcs3 fixed relative 0.0002 0.0002 0.0002 paramGroup1 1.0000 0.0000 1
damp none relative 0.255 0.01 0.95 paramGroup1 1.0000 0.0000 1
rivvel none relative 0.75 0.3 1 paramGroup1 1.0000 0.0000 1
tcalt fixed relative 0.6 0.6 0.6 paramGroup1 1.0000 0.0000 1
qmean fixed relative 25 25 25 paramGroup1 1.0000 0.0000 1
epotdist fixed relative 3 3 3 paramGroup1 1.0000 0.0000 1
gldepi none relative 3.0 1.0 10.0 paramGroup1 1.0000 0.0000 1
gratp none relative 2.25 2 2.5 paramGroup1 1.0000 0.0000 1
gratk none relative 1.0 0.05 2.0 paramGroup1 1.0000 0.0000 1
sdnsnew fixed relative 0.145 0.1 0.19 paramGroup1 1.0000 0.0000 1
snowdensdt fixed relative 0.0014 0.0014 0.0014 paramGroup1 1.0000 0.0000 1
ttmp_10 fixed relative 1.0 0.0 2.0 paramGroup1 1.0000 0.0000 1
ttmp_11 none relative 1.0 0.0 2.0 paramGroup1 1.0000 0.0000 1
ttmp_12 fixed relative 1.0 0.0 2.0 paramGroup1 1.0000 0.0000 1
ttmp_13 none relative 1.0 0.0 2.0 paramGroup1 1.0000 0.0000 1
ttmp_14 none relative 1.0 -1.0 2.0 paramGroup2 1.0000 0.0000 1
ttmp_15 none relative 1.0 0.0 2.0 paramGroup1 1.0000 0.0000 1
ttmp_16 none relative 1.0 0.0 2.0 paramGroup1 1.0000 0.0000 1
ttmp_17 none relative 1.0 -2.0 2.0 paramGroup2 1.0000 0.0000 1
cmlt_10 fixed relative 2.6 0.2 5.0 paramGroup1 1.0000 0.0000 1
cmlt_11 none relative 2.6 0.2 8.0 paramGroup1 1.0000 0.0000 1
cmlt_12 fixed relative 2.6 0.2 5.0 paramGroup1 1.0000 0.0000 1
cmlt_13 none relative 2.6 0.2 5.0 paramGroup1 1.0000 0.0000 1
cmlt_14 none relative 2.6 0.2 5.0 paramGroup1 1.0000 0.0000 1
cmlt_15 none relative 2.6 0.2 5.0 paramGroup1 1.0000 0.0000 1
cmlt_16 none relative 2.6 0.2 5.0 paramGroup1 1.0000 0.0000 1
cmlt_17 none relative 2.6 0.2 8.0 paramGroup1 1.0000 0.0000 1
cevp_10 fixed relative 0.15 0.1 0.2 paramGroup1 1.0000 0.0000 1
cevp_11 none relative 0.15 0.1 0.2 paramGroup1 1.0000 0.0000 1
cevp_12 fixed relative 0.15 0.1 0.2 paramGroup1 1.0000 0.0000 1
cevp_13 none relative 0.15 0.1 0.2 paramGroup1 1.0000 0.0000 1
cevp_14 none relative 0.15 0.1 0.2 paramGroup1 1.0000 0.0000 1
cevp_15 none relative 0.15 0.1 0.2 paramGroup1 1.0000 0.0000 1
cevp_16 none relative 0.15 0.1 0.2 paramGroup1 1.0000 0.0000 1
cevp_17 none relative 0.15 0.1 0.2 paramGroup1 1.0000 0.0000 1
srrcs_10 fixed relative 0.15 0.1 0.2 paramGroup1 1.0000 0.0000 1
srrcs_11 none relative 0.15 0.1 0.2 paramGroup1 1.0000 0.0000 1
srrcs_12 fixed relative 0.15 0.1 0.2 paramGroup1 1.0000 0.0000 1
srrcs_13 none relative 0.15 0.1 0.2 paramGroup1 1.0000 0.0000 1
srrcs_14 none relative 0.15 0.1 0.2 paramGroup1 1.0000 0.0000 1
srrcs_15 none relative 0.15 0.1 0.2 paramGroup1 1.0000 0.0000 1
srrcs_16 none relative 0.15 0.1 0.2 paramGroup1 1.0000 0.0000 1
srrcs_17 none relative 0.15 0.1 0.2 paramGroup1 1.0000 0.0000 1
frost_10 fixed relative 2.0 2.0 2.0 paramGroup1 1.0000 0.0000 1
frost_11 fixed relative 2.0 2.0 2.0 paramGroup1 1.0000 0.0000 1
frost_12 fixed relative 2.0 2.0 2.0 paramGroup1 1.0000 0.0000 1
frost_13 fixed relative 2.0 2.0 2.0 paramGroup1 1.0000 0.0000 1
frost_14 fixed relative 2.0 2.0 2.0 paramGroup1 1.0000 0.0000 1
frost_15 fixed relative 2.0 2.0 2.0 paramGroup1 1.0000 0.0000 1
frost_16 fixed relative 2.0 2.0 2.0 paramGroup1 1.0000 0.0000 1
frost_17 fixed relative 2.0 2.0 2.0 paramGroup1 1.0000 0.0000 1
rrcs1_100 fixed relative 0.375 0.05 0.7 paramGroup1 1.0000 0.0000 1
rrcs1_101 none relative 0.375 0.05 0.7 paramGroup1 1.0000 0.0000 1
rrcs1_102 none relative 0.375 0.05 0.7 paramGroup1 1.0000 0.0000 1
rrcs1_103 none relative 0.375 0.05 0.7 paramGroup1 1.0000 0.0000 1
rrcs1_104 none relative 0.375 0.05 0.7 paramGroup1 1.0000 0.0000 1
rrcs1_105 none relative 0.375 0.05 1.0 paramGroup1 1.0000 0.0000 1
rrcs1_106 none relative 0.375 0.05 0.7 paramGroup1 1.0000 0.0000 1
rrcs2_100 fixed relative 0.0255 0.001 0.05 paramGroup1 1.0000 0.0000 1
rrcs2_101 none relative 0.0255 0.001 0.05 paramGroup1 1.0000 0.0000 1
rrcs2_102 none relative 0.0255 0.001 0.05 paramGroup1 1.0000 0.0000 1
rrcs2_103 none relative 0.0255 0.001 0.05 paramGroup1 1.0000 0.0000 1
rrcs2_104 none relative 0.0255 0.001 0.05 paramGroup1 1.0000 0.0000 1
rrcs2_105 none relative 0.0255 0.001 0.05 paramGroup1 1.0000 0.0000 1
rrcs2_106 none relative 0.0255 0.001 0.05 paramGroup1 1.0000 0.0000 1
trrcs_100 fixed relative 0.2 0.1 0.3 paramGroup1 1.0000 0.0000 1
trrcs_101 fixed relative 0.2 0.1 0.3 paramGroup1 1.0000 0.0000 1
trrcs_102 fixed relative 0.2 0.1 0.3 paramGroup1 1.0000 0.0000 1
trrcs_103 fixed relative 0.2 0.1 0.3 paramGroup1 1.0000 0.0000 1
trrcs_104 fixed relative 0.2 0.1 0.3 paramGroup1 1.0000 0.0000 1
trrcs_105 fixed relative 0.2 0.1 0.3 paramGroup1 1.0000 0.0000 1
trrcs_106 fixed relative 0.2 0.1 0.3 paramGroup1 1.0000 0.0000 1
mperc1_100 fixed relative 65 30 100 paramGroup1 1.0000 0.0000 1
mperc1_101 fixed relative 65 30 100 paramGroup1 1.0000 0.0000 1
mperc1_102 fixed relative 65 30 100 paramGroup1 1.0000 0.0000 1
mperc1_103 fixed relative 65 30 100 paramGroup1 1.0000 0.0000 1
mperc1_104 fixed relative 65 30 100 paramGroup1 1.0000 0.0000 1
mperc1_105 fixed relative 65 30 100 paramGroup1 1.0000 0.0000 1
mperc1_106 fixed relative 65 30 100 paramGroup1 1.0000 0.0000 1
mperc2_100 fixed relative 65 30 100 paramGroup1 1.0000 0.0000 1
mperc2_101 fixed relative 65 30 100 paramGroup1 1.0000 0.0000 1
mperc2_102 fixed relative 65 30 100 paramGroup1 1.0000 0.0000 1
mperc2_103 fixed relative 65 30 100 paramGroup1 1.0000 0.0000 1
mperc2_104 fixed relative 65 30 100 paramGroup1 1.0000 0.0000 1
mperc2_105 fixed relative 65 30 100 paramGroup1 1.0000 0.0000 1
mperc2_106 fixed relative 65 30 100 paramGroup1 1.0000 0.0000 1
sfrost_100 fixed relative 1.0 1.0 1.0 paramGroup1 1.0000 0.0000 1
sfrost_101 fixed relative 1.0 1.0 1.0 paramGroup1 1.0000 0.0000 1
sfrost_102 fixed relative 1.0 1.0 1.0 paramGroup1 1.0000 0.0000 1
sfrost_103 fixed relative 1.0 1.0 1.0 paramGroup1 1.0000 0.0000 1
sfrost_104 fixed relative 1.0 1.0 1.0 paramGroup1 1.0000 0.0000 1
sfrost_105 fixed relative 1.0 1.0 1.0 paramGroup1 1.0000 0.0000 1
sfrost_106 fixed relative 1.0 1.0 1.0 paramGroup1 1.0000 0.0000 1
macrate_100 fixed relative 0.2 0.1 0.3 paramGroup1 1.0000 0.0000 1
macrate_101 none relative 0.2 0.1 0.3 paramGroup1 1.0000 0.0000 1
macrate_102 none relative 0.2 0.1 0.3 paramGroup1 1.0000 0.0000 1
macrate_103 none relative 0.2 0.1 0.3 paramGroup1 1.0000 0.0000 1
macrate_104 none relative 0.2 0.1 0.3 paramGroup1 1.0000 0.0000 1
macrate_105 none relative 0.2 0.1 0.3 paramGroup1 1.0000 0.0000 1
macrate_106 none relative 0.2 0.1 0.3 paramGroup1 1.0000 0.0000 1
mactrinf_100 fixed relative 30 10 50 paramGroup1 1.0000 0.0000 1
mactrinf_101 none relative 30 10 50 paramGroup1 1.0000 0.0000 1
mactrinf_102 none relative 30 10 50 paramGroup1 1.0000 0.0000 1
mactrinf_103 none relative 30 10 50 paramGroup1 1.0000 0.0000 1
mactrinf_104 none relative 30 10 50 paramGroup1 1.0000 0.0000 1
mactrinf_105 none relative 30 10 50 paramGroup1 1.0000 0.0000 1
mactrinf_106 none relative 30 10 50 paramGroup1 1.0000 0.0000 1
mactrsm_100 fixed relative 0.675 0.5 0.85 paramGroup1 1.0000 0.0000 1
mactrsm_101 fixed relative 0.675 0.5 0.85 paramGroup1 1.0000 0.0000 1
mactrsm_102 fixed relative 0.675 0.5 0.85 paramGroup1 1.0000 0.0000 1
mactrsm_103 fixed relative 0.675 0.5 0.85 paramGroup1 1.0000 0.0000 1
mactrsm_104 fixed relative 0.675 0.5 0.85 paramGroup1 1.0000 0.0000 1
mactrsm_105 fixed relative 0.675 0.5 0.85 paramGroup1 1.0000 0.0000 1
mactrsm_106 fixed relative 0.675 0.5 0.85 paramGroup1 1.0000 0.0000 1
srrate_100 fixed relative 0.15 0.1 0.2 paramGroup1 1.0000 0.0000 1
srrate_101 none relative 0.15 0.1 0.2 paramGroup1 1.0000 0.0000 1
srrate_102 none relative 0.15 0.1 0.2 paramGroup1 1.0000 0.0000 1
srrate_103 none relative 0.15 0.1 0.2 paramGroup1 1.0000 0.0000 1
srrate_104 none relative 0.15 0.1 0.2 paramGroup1 1.0000 0.0000 1
srrate_105 none relative 0.15 0.1 0.2 paramGroup1 1.0000 0.0000 1
srrate_106 none relative 0.15 0.1 0.2 paramGroup1 1.0000 0.0000 1
wcwp_100 fixed relative 0.07 0.04 0.1 paramGroup1 1.0000 0.0000 1
wcwp_101 none relative 0.07 0.04 0.1 paramGroup1 1.0000 0.0000 1
wcwp_102 none relative 0.07 0.04 0.1 paramGroup1 1.0000 0.0000 1
wcwp_103 none relative 0.07 0.04 0.1 paramGroup1 1.0000 0.0000 1
wcwp_104 none relative 0.07 0.04 0.1 paramGroup1 1.0000 0.0000 1
wcwp_105 none relative 0.07 0.04 0.1 paramGroup1 1.0000 0.0000 1
wcwp_106 none relative 0.07 0.04 0.1 paramGroup1 1.0000 0.0000 1
wcfc_100 fixed relative 0.25 0.1 0.4 paramGroup1 1.0000 0.0000 1
wcfc_101 none relative 0.25 0.1 0.4 paramGroup1 1.0000 0.0000 1
wcfc_102 none relative 0.25 0.1 0.5 paramGroup1 1.0000 0.0000 1
wcfc_103 none relative 0.25 0.1 0.4 paramGroup1 1.0000 0.0000 1
wcfc_104 none relative 0.25 0.1 0.4 paramGroup1 1.0000 0.0000 1
wcfc_105 none relative 0.25 0.1 0.4 paramGroup1 1.0000 0.0000 1
wcfc_106 none relative 0.25 0.1 0.4 paramGroup1 1.0000 0.0000 1
wcep_100 fixed relative 0.055 0.01 0.1 paramGroup1 1.0000 0.0000 1
wcep_101 none relative 0.055 0.01 0.1 paramGroup1 1.0000 0.0000 1
wcep_102 none relative 0.055 0.01 0.1 paramGroup1 1.0000 0.0000 1
wcep_103 none relative 0.055 0.01 0.1 paramGroup1 1.0000 0.0000 1
wcep_104 none relative 0.055 0.01 0.35 paramGroup1 1.0000 0.0000 1
wcep_105 none relative 0.055 0.01 0.35 paramGroup1 1.0000 0.0000 1
wcep_106 none relative 0.055 0.01 0.1 paramGroup1 1.0000 0.0000 1
* observation groups
warmup_obs
calib_obs
valid_obs
* observation data
o29225 5.3 0.0 warmup_obs
o29226 4.79 0.0 warmup_obs
o29227 4.24 0.0 warmup_obs
o29228 3.39 0.0 warmup_obs
o29229 2.98 0.0 warmup_obs
o29230 2.85 0.0 warmup_obs
o29231 2.4 0.0 warmup_obs
o29232 2.34 0.0 warmup_obs
o29233 2.17 0.0 warmup_obs
o29234 1.89 0.0 warmup_obs
o29235 1.77 0.0 warmup_obs
o29236 1.66 0.0 warmup_obs
o29237 1.61 0.0 warmup_obs
o29238 1.59 0.0 warmup_obs
o29239 1.55 0.0 warmup_obs
o29240 1.52 0.0 warmup_obs
o29241 1.51 0.0 warmup_obs
o29242 1.47 0.0 warmup_obs
o29243 1.45 0.0 warmup_obs
o29244 1.44 0.0 warmup_obs
o29245 1.42 0.0 warmup_obs
o29246 1.42 0.0 warmup_obs
o29247 1.42 0.0 warmup_obs
o29248 1.41 0.0 warmup_obs
o29249 1.44 0.0 warmup_obs
o29250 1.49 0.0 warmup_obs
o29251 2.34 0.0 warmup_obs
o29252 3.66 0.0 warmup_obs
o29253 8.55 0.0 warmup_obs
o29254 9.55 0.0 warmup_obs
o29255 12.42 0.0 warmup_obs
o29256 9.6 0.0 warmup_obs
o29257 6.51 0.0 warmup_obs
o29258 5.36 0.0 warmup_obs
o29259 4.77 0.0 warmup_obs
o29260 4.4 0.0 warmup_obs
o29261 4.09 0.0 warmup_obs
o29262 4.14 0.0 warmup_obs
o29263 7.1 0.0 warmup_obs
o29264 17.0 0.0 warmup_obs
o29265 38.33 0.0 warmup_obs
o29266 56.67 0.0 warmup_obs
o29267 59.99 0.0 warmup_obs
o29268 49.58 0.0 warmup_obs
o29269 39.48 0.0 warmup_obs
o29270 31.66 0.0 warmup_obs
o29271 24.71 0.0 warmup_obs
o29272 20.37 0.0 warmup_obs
o29273 17.56 0.0 warmup_obs
o29274 16.38 0.0 warmup_obs
o29275 15.41 0.0 warmup_obs
o29276 13.55 0.0 warmup_obs
o29277 12.23 0.0 warmup_obs
o29278 11.37 0.0 warmup_obs
o29279 10.3 0.0 warmup_obs
o29280 9.8 0.0 warmup_obs
o29281 9.1 0.0 warmup_obs
o29282 8.1 0.0 warmup_obs
o29283 7.9 0.0 warmup_obs
o29284 7.3 0.0 warmup_obs
o29285 7.1 0.0 warmup_obs
o29286 6.9 0.0 warmup_obs
o29287 6.5 0.0 warmup_obs
o29288 6.3 0.0 warmup_obs
o29289 6.3 0.0 warmup_obs
o29290 6.1 0.0 warmup_obs
o29291 5.9 0.0 warmup_obs
o29292 6.1 0.0 warmup_obs
o29293 5.9 0.0 warmup_obs
o29294 6.5 0.0 warmup_obs
o29295 6.5 0.0 warmup_obs
o29296 6.3 0.0 warmup_obs
o29297 6.3 0.0 warmup_obs
o29298 6.5 0.0 warmup_obs
o29299 6.9 0.0 warmup_obs
o29300 7.7 0.0 warmup_obs
o29301 12.9 0.0 warmup_obs
o29302 21.0 0.0 warmup_obs
o29303 19.6 0.0 warmup_obs
o29304 15.1 0.0 warmup_obs
o29305 13.2 0.0 warmup_obs
o29306 11.0 0.0 warmup_obs
o29307 10.1 0.0 warmup_obs
o29308 8.8 0.0 warmup_obs
o29309 7.9 0.0 warmup_obs
o29310 7.7 0.0 warmup_obs
o29311 12.0 0.0 warmup_obs
o29312 31.0 0.0 warmup_obs
o29313 41.08 0.0 warmup_obs
o29314 43.0 0.0 warmup_obs
o29315 43.0 0.0 warmup_obs
o29316 41.0 0.0 warmup_obs
o29317 38.0 0.0 warmup_obs
o29318 37.0 0.0 warmup_obs
o29319 34.0 0.0 warmup_obs
o29320 32.0 0.0 warmup_obs
o29321 31.0 0.0 warmup_obs
o29322 36.0 0.0 warmup_obs
o29323 41.0 0.0 warmup_obs
o29324 40.0 0.0 warmup_obs
o29325 37.0 0.0 warmup_obs
o29326 33.0 0.0 warmup_obs
o29327 30.0 0.0 warmup_obs
o29328 26.0 0.0 warmup_obs
o29329 23.0 0.0 warmup_obs
o29330 21.0 0.0 warmup_obs
o29331 18.7 0.0 warmup_obs
o29332 17.0 0.0 warmup_obs
o29333 16.7 0.0 warmup_obs
o29334 18.4 0.0 warmup_obs
o29335 18.1 0.0 warmup_obs
o29336 16.7 0.0 warmup_obs
o29337 15.6 0.0 warmup_obs
o29338 14.7 0.0 warmup_obs
o29339 13.9 0.0 warmup_obs
o29340 16.7 0.0 warmup_obs
o29341 23.0 0.0 warmup_obs
o29342 43.0 0.0 warmup_obs
o29343 54.0 0.0 warmup_obs
o29344 55.0 0.0 warmup_obs
o29345 52.0 0.0 warmup_obs
o29346 47.63 0.0 warmup_obs
o29347 44.16 0.0 warmup_obs
o29348 37.76 0.0 warmup_obs
o29349 31.76 0.0 warmup_obs
o29350 26.3 0.0 warmup_obs
o29351 22.12 0.0 warmup_obs
o29352 18.85 0.0 warmup_obs
o29353 16.4 0.0 warmup_obs
o29354 14.42 0.0 warmup_obs
o29355 12.6 0.0 warmup_obs
o29356 10.8 0.0 warmup_obs
o29357 9.48 0.0 warmup_obs
o29358 8.22 0.0 warmup_obs
o29359 7.48 0.0 warmup_obs
o29360 7.39 0.0 warmup_obs
o29361 7.66 0.0 warmup_obs
o29362 7.42 0.0 warmup_obs
o29363 6.8 0.0 warmup_obs
o29364 6.1 0.0 warmup_obs
o29365 5.76 0.0 warmup_obs
o29366 5.26 0.0 warmup_obs
o29367 5.0 0.0 warmup_obs
o29368 4.66 0.0 warmup_obs
o29369 4.35 0.0 warmup_obs
o29370 4.14 0.0 warmup_obs
o29371 3.68 0.0 warmup_obs
o29372 4.64 0.0 warmup_obs
o29373 6.01 0.0 warmup_obs
o29374 5.89 0.0 warmup_obs
o29375 5.2 0.0 warmup_obs
o29376 4.55 0.0 warmup_obs
o29377 3.91 0.0 warmup_obs
o29378 3.9 0.0 warmup_obs
o29379 3.93 0.0 warmup_obs
o29380 3.56 0.0 warmup_obs
o29381 3.34 0.0 warmup_obs
o29382 3.23 0.0 warmup_obs
o29383 3.21 0.0 warmup_obs
o29384 3.18 0.0 warmup_obs
o29385 3.16 0.0 warmup_obs
o29386 3.34 0.0 warmup_obs
o29387 3.3 0.0 warmup_obs
o29388 3.19 0.0 warmup_obs
o29389 3.1 0.0 warmup_obs
o29390 2.92 0.0 warmup_obs
o29391 2.9 0.0 warmup_obs
o29392 3.2 0.0 warmup_obs
o29393 4.38 0.0 warmup_obs
o29394 6.89 0.0 warmup_obs
o29395 9.86 0.0 warmup_obs
o29396 10.3 0.0 warmup_obs
o29397 7.97 0.0 warmup_obs
o29398 6.1 0.0 warmup_obs
o29399 5.2 0.0 warmup_obs
o29400 4.49 0.0 warmup_obs
o29401 4.21 0.0 warmup_obs
o29402 3.86 0.0 warmup_obs
o29403 3.8 0.0 warmup_obs
o29404 4.15 0.0 warmup_obs
o29405 5.0 0.0 warmup_obs
o29406 4.8 0.0 warmup_obs
o29407 4.1 0.0 warmup_obs
o29408 3.9 0.0 warmup_obs
o29409 3.8 0.0 warmup_obs
o29410 4.2 0.0 warmup_obs
o29411 7.1 0.0 warmup_obs
o29412 10.3 0.0 warmup_obs
o29413 8.6 0.0 warmup_obs
o29414 7.21 0.0 warmup_obs
o29415 7.83 0.0 warmup_obs
o29416 8.69 0.0 warmup_obs
o29417 10.09 0.0 warmup_obs
o29418 10.21 0.0 warmup_obs
o29419 8.66 0.0 warmup_obs
o29420 8.52 0.0 warmup_obs
o29421 7.58 0.0 warmup_obs
o29422 16.94 0.0 warmup_obs
o29423 21.33 0.0 warmup_obs
o29424 16.43 0.0 warmup_obs
o29425 12.64 0.0 warmup_obs
o29426 10.39 0.0 warmup_obs
o29427 8.82 0.0 warmup_obs
o29428 7.74 0.0 warmup_obs
o29429 7.09 0.0 warmup_obs
o29430 6.5 0.0 warmup_obs
o29431 5.9 0.0 warmup_obs
o29432 5.5 0.0 warmup_obs
o29433 5.3 0.0 warmup_obs
o29434 4.8 0.0 warmup_obs
o29435 4.5 0.0 warmup_obs
o29436 4.2 0.0 warmup_obs
o29437 4.2 0.0 warmup_obs
o29438 5.9 0.0 warmup_obs
o29439 6.1 0.0 warmup_obs
o29440 5.5 0.0 warmup_obs
o29441 5.7 0.0 warmup_obs
o29442 5.5 0.0 warmup_obs
o29443 5.0 0.0 warmup_obs
o29444 4.8 0.0 warmup_obs
o29445 5.2 0.0 warmup_obs
o29446 4.64 0.0 warmup_obs
o29447 4.14 0.0 warmup_obs
o29448 3.9 0.0 warmup_obs
o29449 3.75 0.0 warmup_obs
o29450 3.61 0.0 warmup_obs
o29451 3.55 0.0 warmup_obs
o29452 4.4 0.0 warmup_obs
o29453 5.77 0.0 warmup_obs
o29454 5.28 0.0 warmup_obs
o29455 5.8 0.0 warmup_obs
o29456 7.23 0.0 warmup_obs
o29457 6.78 0.0 warmup_obs
o29458 5.6 0.0 warmup_obs
o29459 4.88 0.0 warmup_obs
o29460 4.62 0.0 warmup_obs
o29461 5.55 0.0 warmup_obs
o29462 6.43 0.0 warmup_obs
o29463 5.22 0.0 warmup_obs
o29464 4.61 0.0 warmup_obs
o29465 4.21 0.0 warmup_obs
o29466 3.85 0.0 warmup_obs
o29467 3.73 0.0 warmup_obs
o29468 4.47 0.0 warmup_obs
o29469 4.71 0.0 warmup_obs
o29470 4.23 0.0 warmup_obs
o29471 3.93 0.0 warmup_obs
o29472 8.0 0.0 warmup_obs
o29473 13.09 0.0 warmup_obs
o29474 12.47 0.0 warmup_obs
o29475 9.56 0.0 warmup_obs
o29476 7.01 0.0 warmup_obs
o29477 5.8 0.0 warmup_obs
o29478 5.33 0.0 warmup_obs
o29479 4.81 0.0 warmup_obs
o29480 4.12 0.0 warmup_obs
o29481 3.84 0.0 warmup_obs
o29482 3.78 0.0 warmup_obs
o29483 3.79 0.0 warmup_obs
o29484 3.53 0.0 warmup_obs
o29485 3.4 0.0 warmup_obs
o29486 3.12 0.0 warmup_obs
o29487 3.15 0.0 warmup_obs
o29488 3.16 0.0 warmup_obs
o29489 3.16 0.0 warmup_obs
o29490 3.16 0.0 warmup_obs
o29491 3.16 0.0 warmup_obs
o29492 3.18 0.0 warmup_obs
o29493 3.2 0.0 warmup_obs
o29494 2.9 0.0 warmup_obs
o29495 3.1 0.0 warmup_obs
o29496 3.18 0.0 warmup_obs
o29497 3.21 0.0 warmup_obs
o29498 3.75 0.0 warmup_obs
o29499 5.0 0.0 warmup_obs
o29500 4.8 0.0 warmup_obs
o29501 3.92 0.0 warmup_obs
o29502 3.8 0.0 warmup_obs
o29503 3.48 0.0 warmup_obs
o29504 3.34 0.0 warmup_obs
o29505 3.28 0.0 warmup_obs
o29506 3.29 0.0 warmup_obs
o29507 3.2 0.0 warmup_obs
o29508 3.16 0.0 warmup_obs
o29509 3.16 0.0 warmup_obs
o29510 3.09 0.0 warmup_obs
o29511 2.79 0.0 warmup_obs
o29512 3.06 0.0 warmup_obs
o29513 2.9 0.0 warmup_obs
o29514 3.14 0.0 warmup_obs
o29515 3.14 0.0 warmup_obs
o29516 3.04 0.0 warmup_obs
o29517 3.03 0.0 warmup_obs
o29518 3.0 0.0 warmup_obs
o29519 2.87 0.0 warmup_obs
o29520 3.04 0.0 warmup_obs
o29521 2.92 0.0 warmup_obs
o29522 2.8 0.0 warmup_obs
o29523 3.03 0.0 warmup_obs
o29524 2.93 0.0 warmup_obs
o29525 2.9 0.0 warmup_obs
o29526 3.3 0.0 warmup_obs
o29527 5.5 0.0 warmup_obs
o29528 8.06 0.0 warmup_obs
o29529 9.35 0.0 warmup_obs
o29530 8.0 0.0 warmup_obs
o29531 6.49 0.0 warmup_obs
o29532 5.5 0.0 warmup_obs
o29533 4.8 0.0 warmup_obs
o29534 4.27 0.0 warmup_obs
o29535 3.88 0.0 warmup_obs
o29536 3.79 0.0 warmup_obs
o29537 3.3 0.0 warmup_obs
o29538 3.56 0.0 warmup_obs
o29539 3.95 0.0 warmup_obs
o29540 3.85 0.0 warmup_obs
o29541 3.5 0.0 warmup_obs
o29542 3.51 0.0 warmup_obs
o29543 3.69 0.0 warmup_obs
o29544 3.66 0.0 warmup_obs
o29545 3.68 0.0 warmup_obs
o29546 4.22 0.0 warmup_obs
o29547 10.65 0.0 warmup_obs
o29548 21.11 0.0 warmup_obs
o29549 27.36 0.0 warmup_obs
o29550 29.98 0.0 warmup_obs
o29551 31.16 0.0 warmup_obs
o29552 27.15 0.0 warmup_obs
o29553 22.99 0.0 warmup_obs
o29554 21.43 0.0 warmup_obs
o29555 21.03 0.0 warmup_obs
o29556 24.32 0.0 warmup_obs
o29557 25.88 0.0 warmup_obs
o29558 19.98 0.0 warmup_obs
o29559 15.96 0.0 warmup_obs
o29560 15.6 0.0 warmup_obs
o29561 13.78 0.0 warmup_obs
o29562 12.85 0.0 warmup_obs
o29563 10.93 0.0 warmup_obs
o29564 10.44 0.0 warmup_obs
o29565 10.14 0.0 warmup_obs
o29566 9.18 0.0 warmup_obs
o29567 8.34 0.0 warmup_obs
o29568 8.06 0.0 warmup_obs
o29569 7.53 0.0 warmup_obs
o29570 6.82 0.0 warmup_obs
o29571 6.14 0.0 warmup_obs
o29572 5.74 0.0 warmup_obs
o29573 5.26 0.0 warmup_obs
o29574 5.02 0.0 warmup_obs
o29575 5.13 0.0 warmup_obs
o29576 5.23 0.0 warmup_obs
o29577 5.11 0.0 warmup_obs
o29578 5.06 0.0 warmup_obs
o29579 4.82 0.0 warmup_obs
o29580 4.57 0.0 warmup_obs
o29581 4.93 0.0 warmup_obs
o29582 7.55 0.0 warmup_obs
o29583 11.78 0.0 warmup_obs
o29584 15.75 0.0 warmup_obs
o29585 18.31 0.0 warmup_obs
o29586 19.08 0.0 warmup_obs
o29587 18.64 0.0 warmup_obs
o29588 15.39 0.0 warmup_obs
o29589 12.82 0.0 warmup_obs
o29590 11.8 0.0 warmup_obs
o29591 9.52 1.0 calib_obs
o29592 8.11 1.0 calib_obs
o29593 7.54 1.0 calib_obs
o29594 7.07 1.0 calib_obs
o29595 6.39 1.0 calib_obs
o29596 5.97 1.0 calib_obs
o29597 5.57 1.0 calib_obs
o29598 5.41 1.0 calib_obs
o29599 5.28 1.0 calib_obs
o29600 5.16 1.0 calib_obs
o29601 4.84 1.0 calib_obs
o29602 4.63 1.0 calib_obs
o29603 4.5 1.0 calib_obs
o29604 4.46 1.0 calib_obs
o29605 4.39 1.0 calib_obs
o29606 4.29 1.0 calib_obs
o29607 4.2 1.0 calib_obs
o29608 4.08 1.0 calib_obs
o29609 3.98 1.0 calib_obs
o29610 3.87 1.0 calib_obs
o29611 3.74 1.0 calib_obs
o29612 3.63 1.0 calib_obs
o29613 3.6 1.0 calib_obs
o29614 3.51 1.0 calib_obs
o29615 3.43 1.0 calib_obs
o29616 3.36 1.0 calib_obs
o29617 3.31 1.0 calib_obs
o29618 3.25 1.0 calib_obs
o29619 3.2 1.0 calib_obs
o29620 3.14 1.0 calib_obs
o29621 3.08 1.0 calib_obs
o29622 3.05 1.0 calib_obs
o29623 3.02 1.0 calib_obs
o29624 2.96 1.0 calib_obs
o29625 2.93 1.0 calib_obs
o29626 2.86 1.0 calib_obs
o29627 2.85 1.0 calib_obs
o29628 2.79 3.0 calib_obs
o29629 2.73 3.0 calib_obs
o29630 2.67 3.0 calib_obs
o29631 2.67 3.0 calib_obs
o29632 2.63 3.0 calib_obs
o29633 2.63 3.0 calib_obs
o29634 2.62 3.0 calib_obs
o29635 2.61 3.0 calib_obs
o29636 2.61 3.0 calib_obs
o29637 2.6 3.0 calib_obs
o29638 2.6 3.0 calib_obs
o29639 2.6 3.0 calib_obs
o29640 2.6 3.0 calib_obs
o29641 3.17 1.0 calib_obs
o29642 3.48 1.0 calib_obs
o29643 3.56 1.0 calib_obs
o29644 3.56 1.0 calib_obs
o29645 3.49 1.0 calib_obs
o29646 3.41 1.0 calib_obs
o29647 3.31 1.0 calib_obs
o29648 3.31 1.0 calib_obs
o29649 3.34 1.0 calib_obs
o29650 3.89 1.0 calib_obs
o29651 8.6 1.0 calib_obs
o29652 12.6 1.0 calib_obs
o29653 14.2 1.0 calib_obs
o29654 12.4 1.0 calib_obs
o29655 9.8 1.0 calib_obs
o29656 7.7 1.0 calib_obs
o29657 6.7 1.0 calib_obs
o29658 6.3 1.0 calib_obs
o29659 6.1 1.0 calib_obs
o29660 5.7 1.0 calib_obs
o29661 5.7 1.0 calib_obs
o29662 5.7 1.0 calib_obs
o29663 6.5 1.0 calib_obs
o29664 8.6 1.0 calib_obs
o29665 21.0 1.0 calib_obs
o29666 24.0 1.0 calib_obs
o29667 25.0 1.0 calib_obs
o29668 25.0 1.0 calib_obs
o29669 24.0 1.0 calib_obs
o29670 24.0 1.0 calib_obs
o29671 27.0 1.0 calib_obs
o29672 35.0 1.0 calib_obs
o29673 35.0 1.0 calib_obs
o29674 31.0 1.0 calib_obs
o29675 25.0 1.0 calib_obs
o29676 25.0 1.0 calib_obs
o29677 28.0 1.0 calib_obs
o29678 28.0 1.0 calib_obs
o29679 24.0 1.0 calib_obs
o29680 21.0 1.0 calib_obs
o29681 19.0 1.0 calib_obs
o29682 18.4 1.0 calib_obs
o29683 21.0 1.0 calib_obs
o29684 24.0 1.0 calib_obs
o29685 26.0 1.0 calib_obs
o29686 28.0 1.0 calib_obs
o29687 31.0 1.0 calib_obs
o29688 33.0 1.0 calib_obs
o29689 32.0 1.0 calib_obs
o29690 31.0 1.0 calib_obs
o29691 30.0 1.0 calib_obs
o29692 30.0 1.0 calib_obs
o29693 27.0 1.0 calib_obs
o29694 25.0 1.0 calib_obs
o29695 21.0 1.0 calib_obs
o29696 19.0 1.0 calib_obs
o29697 16.7 1.0 calib_obs
o29698 14.9 1.0 calib_obs
o29699 13.4 1.0 calib_obs
o29700 12.3 1.0 calib_obs
o29701 11.8 1.0 calib_obs
o29702 13.2 1.0 calib_obs
o29703 14.7 1.0 calib_obs
o29704 14.4 1.0 calib_obs
o29705 13.4 1.0 calib_obs
o29706 13.7 1.0 calib_obs
o29707 14.7 1.0 calib_obs
o29708 13.9 1.0 calib_obs
o29709 12.9 1.0 calib_obs
o29710 12.9 1.0 calib_obs
o29711 19.53 1.0 calib_obs
o29712 20.49 1.0 calib_obs
o29713 17.62 1.0 calib_obs
o29714 15.27 1.0 calib_obs
o29715 13.52 1.0 calib_obs
o29716 12.2 1.0 calib_obs
o29717 11.24 1.0 calib_obs
o29718 10.39 1.0 calib_obs
o29719 9.26 1.0 calib_obs
o29720 8.56 1.0 calib_obs
o29721 7.8 1.0 calib_obs
o29722 7.18 1.0 calib_obs
o29723 6.72 1.0 calib_obs
o29724 6.14 1.0 calib_obs
o29725 5.83 1.0 calib_obs
o29726 5.61 1.0 calib_obs
o29727 5.32 1.0 calib_obs
o29728 5.16 1.0 calib_obs
o29729 5.06 1.0 calib_obs
o29730 4.99 1.0 calib_obs
o29731 4.86 1.0 calib_obs
o29732 4.68 1.0 calib_obs
o29733 4.38 1.0 calib_obs
o29734 4.23 1.0 calib_obs
o29735 4.07 1.0 calib_obs
o29736 3.79 1.0 calib_obs
o29737 3.53 1.0 calib_obs
o29738 3.31 1.0 calib_obs
o29739 3.28 1.0 calib_obs
o29740 3.22 1.0 calib_obs
o29741 3.39 1.0 calib_obs
o29742 3.67 1.0 calib_obs
o29743 4.0 1.0 calib_obs
o29744 3.87 1.0 calib_obs
o29745 3.6 1.0 calib_obs
o29746 3.29 1.0 calib_obs
o29747 3.13 1.0 calib_obs
o29748 3.16 1.0 calib_obs
o29749 3.21 1.0 calib_obs
o29750 3.55 1.0 calib_obs
o29751 4.08 1.0 calib_obs
o29752 4.59 1.0 calib_obs
o29753 4.22 1.0 calib_obs
o29754 5.25 1.0 calib_obs
o29755 10.91 1.0 calib_obs
o29756 12.06 1.0 calib_obs
o29757 9.15 1.0 calib_obs
o29758 7.16 1.0 calib_obs
o29759 6.19 1.0 calib_obs
o29760 5.54 1.0 calib_obs
o29761 5.01 1.0 calib_obs
o29762 4.54 1.0 calib_obs
o29763 4.53 1.0 calib_obs
o29764 4.78 1.0 calib_obs
o29765 4.45 1.0 calib_obs
o29766 4.11 1.0 calib_obs
o29767 3.83 1.0 calib_obs
o29768 5.01 1.0 calib_obs
o29769 6.98 1.0 calib_obs
o29770 7.28 1.0 calib_obs
o29771 6.37 1.0 calib_obs
o29772 5.33 1.0 calib_obs
o29773 4.59 1.0 calib_obs
o29774 4.14 1.0 calib_obs
o29775 3.83 1.0 calib_obs
o29776 3.65 1.0 calib_obs
o29777 3.63 1.0 calib_obs
o29778 3.81 1.0 calib_obs
o29779 3.48 1.0 calib_obs
o29780 3.17 1.0 calib_obs
o29781 3.01 1.0 calib_obs
o29782 2.77 3.0 calib_obs
o29783 2.9 1.0 calib_obs
o29784 2.86 1.0 calib_obs
o29785 2.87 1.0 calib_obs
o29786 2.91 1.0 calib_obs
o29787 2.91 1.0 calib_obs
o29788 2.78 3.0 calib_obs
o29789 2.74 3.0 calib_obs
o29790 2.72 3.0 calib_obs
o29791 2.85 1.0 calib_obs
o29792 2.74 3.0 calib_obs
o29793 2.6 3.0 calib_obs
o29794 2.52 3.0 calib_obs
o29795 2.52 3.0 calib_obs
o29796 2.48 3.0 calib_obs
o29797 2.42 3.0 calib_obs
o29798 2.45 3.0 calib_obs
o29799 2.58 3.0 calib_obs
o29800 2.75 3.0 calib_obs
o29801 2.46 3.0 calib_obs
o29802 1.85 3.0 calib_obs
o29803 1.39 3.0 calib_obs
o29804 2.26 3.0 calib_obs
o29805 2.79 3.0 calib_obs
o29806 5.49 1.0 calib_obs
o29807 5.81 1.0 calib_obs
o29808 6.23 1.0 calib_obs
o29809 7.47 1.0 calib_obs
o29810 14.18 1.0 calib_obs
o29811 13.94 1.0 calib_obs
o29812 10.1 1.0 calib_obs
o29813 7.44 1.0 calib_obs
o29814 6.16 1.0 calib_obs
o29815 6.18 1.0 calib_obs
o29816 6.88 1.0 calib_obs
o29817 6.91 1.0 calib_obs
o29818 6.29 1.0 calib_obs
o29819 5.59 1.0 calib_obs
o29820 4.84 1.0 calib_obs
o29821 4.48 1.0 calib_obs
o29822 4.69 1.0 calib_obs
o29823 4.38 1.0 calib_obs
o29824 4.2 1.0 calib_obs
o29825 4.03 1.0 calib_obs
o29826 3.81 1.0 calib_obs
o29827 3.81 1.0 calib_obs
o29828 3.41 1.0 calib_obs
o29829 3.25 1.0 calib_obs
o29830 3.13 1.0 calib_obs
o29831 2.8 3.0 calib_obs
o29832 2.7 3.0 calib_obs
o29833 2.66 3.0 calib_obs
o29834 2.74 3.0 calib_obs
o29835 3.25 1.0 calib_obs
o29836 3.98 1.0 calib_obs
o29837 3.65 1.0 calib_obs
o29838 3.13 1.0 calib_obs
o29839 3.19 1.0 calib_obs
o29840 3.14 1.0 calib_obs
o29841 3.42 1.0 calib_obs
o29842 3.26 1.0 calib_obs
o29843 3.76 1.0 calib_obs
o29844 6.07 1.0 calib_obs
o29845 9.42 1.0 calib_obs
o29846 13.71 1.0 calib_obs
o29847 14.86 1.0 calib_obs
o29848 15.11 1.0 calib_obs
o29849 19.52 1.0 calib_obs
o29850 17.02 1.0 calib_obs
o29851 14.7 1.0 calib_obs
o29852 12.3 1.0 calib_obs
o29853 10.9 1.0 calib_obs
o29854 9.75 1.0 calib_obs
o29855 9.15 1.0 calib_obs
o29856 8.59 1.0 calib_obs
o29857 8.04 1.0 calib_obs
o29858 7.5 1.0 calib_obs
o29859 6.86 1.0 calib_obs
o29860 6.18 1.0 calib_obs
o29861 5.65 1.0 calib_obs
o29862 5.21 1.0 calib_obs
o29863 4.82 1.0 calib_obs
o29864 4.61 1.0 calib_obs
o29865 4.47 1.0 calib_obs
o29866 4.48 1.0 calib_obs
o29867 6.7 1.0 calib_obs
o29868 25.0 1.0 calib_obs
o29869 29.6 1.0 calib_obs
o29870 25.9 1.0 calib_obs
o29871 21.17 1.0 calib_obs
o29872 27.93 1.0 calib_obs
o29873 43.48 1.0 calib_obs
o29874 65.85 1.0 calib_obs
o29875 73.84 1.0 calib_obs
o29876 64.98 1.0 calib_obs
o29877 58.16 1.0 calib_obs
o29878 49.0 1.0 calib_obs
o29879 43.0 1.0 calib_obs
o29880 39.0 1.0 calib_obs
o29881 37.0 1.0 calib_obs
o29882 37.0 1.0 calib_obs
o29883 33.0 1.0 calib_obs
o29884 29.0 1.0 calib_obs
o29885 25.0 1.0 calib_obs
o29886 23.0 1.0 calib_obs
o29887 20.0 1.0 calib_obs
o29888 18.1 1.0 calib_obs
o29889 16.7 1.0 calib_obs
o29890 15.4 1.0 calib_obs
o29891 15.1 1.0 calib_obs
o29892 30.0 1.0 calib_obs
o29893 44.0 1.0 calib_obs
o29894 39.0 1.0 calib_obs
o29895 33.0 1.0 calib_obs
o29896 26.0 1.0 calib_obs
o29897 22.0 1.0 calib_obs
o29898 20.0 1.0 calib_obs
o29899 20.0 1.0 calib_obs
o29900 22.0 1.0 calib_obs
o29901 25.0 1.0 calib_obs
o29902 25.0 1.0 calib_obs
o29903 22.0 1.0 calib_obs
o29904 22.0 1.0 calib_obs
o29905 25.0 1.0 calib_obs
o29906 38.0 1.0 calib_obs
o29907 47.0 1.0 calib_obs
o29908 43.0 1.0 calib_obs
o29909 36.0 1.0 calib_obs
o29910 31.0 1.0 calib_obs
o29911 28.0 1.0 calib_obs
o29912 28.0 1.0 calib_obs
o29913 36.0 1.0 calib_obs
o29914 40.0 1.0 calib_obs
o29915 36.0 1.0 calib_obs
o29916 31.0 1.0 calib_obs
o29917 26.0 1.0 calib_obs
o29918 26.0 1.0 calib_obs
o29919 39.0 1.0 calib_obs
o29920 45.0 1.0 calib_obs
o29921 44.0 1.0 calib_obs
o29922 47.0 1.0 calib_obs
o29923 47.0 1.0 calib_obs
o29924 45.0 1.0 calib_obs
o29925 43.0 1.0 calib_obs
o29926 39.0 1.0 calib_obs
o29927 38.0 1.0 calib_obs
o29928 46.0 1.0 calib_obs
o29929 45.0 1.0 calib_obs
o29930 39.0 1.0 calib_obs
o29931 33.0 1.0 calib_obs
o29932 31.0 1.0 calib_obs
o29933 36.0 1.0 calib_obs
o29934 40.0 1.0 calib_obs
o29935 38.0 1.0 calib_obs
o29936 34.0 1.0 calib_obs
o29937 31.0 1.0 calib_obs
o29938 28.0 1.0 calib_obs
o29939 25.0 1.0 calib_obs
o29940 24.0 1.0 calib_obs
o29941 24.0 1.0 calib_obs
o29942 22.0 1.0 calib_obs
o29943 21.0 1.0 calib_obs
o29944 21.0 1.0 calib_obs
o29945 26.02 1.0 calib_obs
o29946 36.59 1.0 calib_obs
o29947 34.32 1.0 calib_obs
o29948 30.0 1.0 calib_obs
o29949 24.74 1.0 calib_obs
o29950 22.87 1.0 calib_obs
o29951 22.24 1.0 calib_obs
o29952 23.0 1.0 calib_obs
o29953 26.04 1.0 calib_obs
o29954 35.82 1.0 calib_obs
o29955 36.0 1.0 calib_obs
o29956 32.0 1.0 calib_obs
o29957 30.0 1.0 calib_obs
o29958 38.0 1.0 calib_obs
o29959 44.0 1.0 calib_obs
o29960 52.0 1.0 calib_obs
o29961 71.0 1.0 calib_obs
o29962 72.0 1.0 calib_obs
o29963 64.0 1.0 calib_obs
o29964 53.77 1.0 calib_obs
o29965 45.62 1.0 calib_obs
o29966 41.9 1.0 calib_obs
o29967 38.95 1.0 calib_obs
o29968 36.43 1.0 calib_obs
o29969 32.45 1.0 calib_obs
o29970 28.21 1.0 calib_obs
o29971 23.8 1.0 calib_obs
o29972 18.88 1.0 calib_obs
o29973 16.42 1.0 calib_obs
o29974 14.19 1.0 calib_obs
o29975 12.56 1.0 calib_obs
o29976 11.33 1.0 calib_obs
o29977 10.79 1.0 calib_obs
o29978 10.34 1.0 calib_obs
o29979 10.92 1.0 calib_obs
o29980 11.82 1.0 calib_obs
o29981 37.55 1.0 calib_obs
o29982 38.24 1.0 calib_obs
o29983 36.43 1.0 calib_obs
o29984 30.54 1.0 calib_obs
o29985 26.87 1.0 calib_obs
o29986 22.25 1.0 calib_obs