pcf
* control data
restart estimation
146 105937 2 0 3
27 29 double point 1 0 0
10.0 5.0 0.5 0.005 20
5.0 5.0 0.005 0
0.01
50 0.01 8 8 0.01 8
1 1 1
* parameter groups
paramGroup1 relative 0.01 0.001 switch 2.0 parabolic
paramGroup2 absolute 0.05 0.001 switch 2.0 parabolic
* parameter data
ttpi none relative 1.0 0.0 2.0 paramGroup1 1.0000 0.0000 1
lp none relative 0.9 0.8 1.0 paramGroup1 1.0000 0.0000 1
cevpam fixed relative 0.5 0.5 0.5 paramGroup1 1.0000 0.0000 1
cevpph fixed relative 45 45 45 paramGroup1 1.0000 0.0000 1
rrcs3 fixed relative 0.0002 0.0002 0.0002 paramGroup1 1.0000 0.0000 1
damp none relative 0.255 0.01 0.95 paramGroup1 1.0000 0.0000 1
rivvel none relative 0.75 0.3 1 paramGroup1 1.0000 0.0000 1
tcalt fixed relative 0.6 0.6 0.6 paramGroup1 1.0000 0.0000 1
qmean fixed relative 25 25 25 paramGroup1 1.0000 0.0000 1
epotdist fixed relative 3 3 3 paramGroup1 1.0000 0.0000 1
gldepi none relative 3.0 1.0 10.0 paramGroup1 1.0000 0.0000 1
gratp none relative 2.25 2 2.5 paramGroup1 1.0000 0.0000 1
gratk none relative 1.0 0.05 2.0 paramGroup1 1.0000 0.0000 1
sdnsnew fixed relative 0.145 0.1 0.19 paramGroup1 1.0000 0.0000 1
snowdensdt fixed relative 0.0014 0.0014 0.0014 paramGroup1 1.0000 0.0000 1
ttmp_10 fixed relative 1.0 0.0 2.0 paramGroup1 1.0000 0.0000 1
ttmp_11 none relative 1.0 0.0 2.0 paramGroup1 1.0000 0.0000 1
ttmp_12 fixed relative 1.0 0.0 2.0 paramGroup1 1.0000 0.0000 1
ttmp_13 none relative 1.0 0.0 2.0 paramGroup1 1.0000 0.0000 1
ttmp_14 none relative 1.0 -1.0 2.0 paramGroup2 1.0000 0.0000 1
ttmp_15 none relative 1.0 0.0 2.0 paramGroup1 1.0000 0.0000 1
ttmp_16 none relative 1.0 0.0 2.0 paramGroup1 1.0000 0.0000 1
ttmp_17 none relative 1.0 -2.0 2.0 paramGroup2 1.0000 0.0000 1
cmlt_10 fixed relative 2.6 0.2 5.0 paramGroup1 1.0000 0.0000 1
cmlt_11 none relative 2.6 0.2 8.0 paramGroup1 1.0000 0.0000 1
cmlt_12 fixed relative 2.6 0.2 5.0 paramGroup1 1.0000 0.0000 1
cmlt_13 none relative 2.6 0.2 5.0 paramGroup1 1.0000 0.0000 1
cmlt_14 none relative 2.6 0.2 5.0 paramGroup1 1.0000 0.0000 1
cmlt_15 none relative 2.6 0.2 5.0 paramGroup1 1.0000 0.0000 1
cmlt_16 none relative 2.6 0.2 5.0 paramGroup1 1.0000 0.0000 1
cmlt_17 none relative 2.6 0.2 8.0 paramGroup1 1.0000 0.0000 1
cevp_10 fixed relative 0.15 0.1 0.2 paramGroup1 1.0000 0.0000 1
cevp_11 none relative 0.15 0.1 0.2 paramGroup1 1.0000 0.0000 1
cevp_12 fixed relative 0.15 0.1 0.2 paramGroup1 1.0000 0.0000 1
cevp_13 none relative 0.15 0.1 0.2 paramGroup1 1.0000 0.0000 1
cevp_14 none relative 0.15 0.1 0.2 paramGroup1 1.0000 0.0000 1
cevp_15 none relative 0.15 0.1 0.2 paramGroup1 1.0000 0.0000 1
cevp_16 none relative 0.15 0.1 0.2 paramGroup1 1.0000 0.0000 1
cevp_17 none relative 0.15 0.1 0.2 paramGroup1 1.0000 0.0000 1
srrcs_10 fixed relative 0.15 0.1 0.2 paramGroup1 1.0000 0.0000 1
srrcs_11 none relative 0.15 0.1 0.2 paramGroup1 1.0000 0.0000 1
srrcs_12 fixed relative 0.15 0.1 0.2 paramGroup1 1.0000 0.0000 1
srrcs_13 none relative 0.15 0.1 0.2 paramGroup1 1.0000 0.0000 1
srrcs_14 none relative 0.15 0.1 0.2 paramGroup1 1.0000 0.0000 1
srrcs_15 none relative 0.15 0.1 0.2 paramGroup1 1.0000 0.0000 1
srrcs_16 none relative 0.15 0.1 0.2 paramGroup1 1.0000 0.0000 1
srrcs_17 none relative 0.15 0.1 0.2 paramGroup1 1.0000 0.0000 1
frost_10 fixed relative 2.0 2.0 2.0 paramGroup1 1.0000 0.0000 1
frost_11 fixed relative 2.0 2.0 2.0 paramGroup1 1.0000 0.0000 1
frost_12 fixed relative 2.0 2.0 2.0 paramGroup1 1.0000 0.0000 1
frost_13 fixed relative 2.0 2.0 2.0 paramGroup1 1.0000 0.0000 1
frost_14 fixed relative 2.0 2.0 2.0 paramGroup1 1.0000 0.0000 1
frost_15 fixed relative 2.0 2.0 2.0 paramGroup1 1.0000 0.0000 1
frost_16 fixed relative 2.0 2.0 2.0 paramGroup1 1.0000 0.0000 1
frost_17 fixed relative 2.0 2.0 2.0 paramGroup1 1.0000 0.0000 1
rrcs1_100 fixed relative 0.375 0.05 0.7 paramGroup1 1.0000 0.0000 1
rrcs1_101 none relative 0.375 0.05 0.7 paramGroup1 1.0000 0.0000 1
rrcs1_102 none relative 0.375 0.05 0.7 paramGroup1 1.0000 0.0000 1
rrcs1_103 none relative 0.375 0.05 0.7 paramGroup1 1.0000 0.0000 1
rrcs1_104 none relative 0.375 0.05 0.7 paramGroup1 1.0000 0.0000 1
rrcs1_105 none relative 0.375 0.05 1.0 paramGroup1 1.0000 0.0000 1
rrcs1_106 none relative 0.375 0.05 0.7 paramGroup1 1.0000 0.0000 1
rrcs2_100 fixed relative 0.0255 0.001 0.05 paramGroup1 1.0000 0.0000 1
rrcs2_101 none relative 0.0255 0.001 0.05 paramGroup1 1.0000 0.0000 1
rrcs2_102 none relative 0.0255 0.001 0.05 paramGroup1 1.0000 0.0000 1
rrcs2_103 none relative 0.0255 0.001 0.05 paramGroup1 1.0000 0.0000 1
rrcs2_104 none relative 0.0255 0.001 0.05 paramGroup1 1.0000 0.0000 1
rrcs2_105 none relative 0.0255 0.001 0.05 paramGroup1 1.0000 0.0000 1
rrcs2_106 none relative 0.0255 0.001 0.05 paramGroup1 1.0000 0.0000 1
trrcs_100 fixed relative 0.2 0.1 0.3 paramGroup1 1.0000 0.0000 1
trrcs_101 fixed relative 0.2 0.1 0.3 paramGroup1 1.0000 0.0000 1
trrcs_102 fixed relative 0.2 0.1 0.3 paramGroup1 1.0000 0.0000 1
trrcs_103 fixed relative 0.2 0.1 0.3 paramGroup1 1.0000 0.0000 1
trrcs_104 fixed relative 0.2 0.1 0.3 paramGroup1 1.0000 0.0000 1
trrcs_105 fixed relative 0.2 0.1 0.3 paramGroup1 1.0000 0.0000 1
trrcs_106 fixed relative 0.2 0.1 0.3 paramGroup1 1.0000 0.0000 1
mperc1_100 fixed relative 65 30 100 paramGroup1 1.0000 0.0000 1
mperc1_101 fixed relative 65 30 100 paramGroup1 1.0000 0.0000 1
mperc1_102 fixed relative 65 30 100 paramGroup1 1.0000 0.0000 1
mperc1_103 fixed relative 65 30 100 paramGroup1 1.0000 0.0000 1
mperc1_104 fixed relative 65 30 100 paramGroup1 1.0000 0.0000 1
mperc1_105 fixed relative 65 30 100 paramGroup1 1.0000 0.0000 1
mperc1_106 fixed relative 65 30 100 paramGroup1 1.0000 0.0000 1
mperc2_100 fixed relative 65 30 100 paramGroup1 1.0000 0.0000 1
mperc2_101 fixed relative 65 30 100 paramGroup1 1.0000 0.0000 1
mperc2_102 fixed relative 65 30 100 paramGroup1 1.0000 0.0000 1
mperc2_103 fixed relative 65 30 100 paramGroup1 1.0000 0.0000 1
mperc2_104 fixed relative 65 30 100 paramGroup1 1.0000 0.0000 1
mperc2_105 fixed relative 65 30 100 paramGroup1 1.0000 0.0000 1
mperc2_106 fixed relative 65 30 100 paramGroup1 1.0000 0.0000 1
sfrost_100 fixed relative 1.0 1.0 1.0 paramGroup1 1.0000 0.0000 1
sfrost_101 fixed relative 1.0 1.0 1.0 paramGroup1 1.0000 0.0000 1
sfrost_102 fixed relative 1.0 1.0 1.0 paramGroup1 1.0000 0.0000 1
sfrost_103 fixed relative 1.0 1.0 1.0 paramGroup1 1.0000 0.0000 1
sfrost_104 fixed relative 1.0 1.0 1.0 paramGroup1 1.0000 0.0000 1
sfrost_105 fixed relative 1.0 1.0 1.0 paramGroup1 1.0000 0.0000 1
sfrost_106 fixed relative 1.0 1.0 1.0 paramGroup1 1.0000 0.0000 1
macrate_100 fixed relative 0.2 0.1 0.3 paramGroup1 1.0000 0.0000 1
macrate_101 none relative 0.2 0.1 0.3 paramGroup1 1.0000 0.0000 1
macrate_102 none relative 0.2 0.1 0.3 paramGroup1 1.0000 0.0000 1
macrate_103 none relative 0.2 0.1 0.3 paramGroup1 1.0000 0.0000 1
macrate_104 none relative 0.2 0.1 0.3 paramGroup1 1.0000 0.0000 1
macrate_105 none relative 0.2 0.1 0.3 paramGroup1 1.0000 0.0000 1
macrate_106 none relative 0.2 0.1 0.3 paramGroup1 1.0000 0.0000 1
mactrinf_100 fixed relative 30 10 50 paramGroup1 1.0000 0.0000 1
mactrinf_101 none relative 30 10 50 paramGroup1 1.0000 0.0000 1
mactrinf_102 none relative 30 10 50 paramGroup1 1.0000 0.0000 1
mactrinf_103 none relative 30 10 50 paramGroup1 1.0000 0.0000 1
mactrinf_104 none relative 30 10 50 paramGroup1 1.0000 0.0000 1
mactrinf_105 none relative 30 10 50 paramGroup1 1.0000 0.0000 1
mactrinf_106 none relative 30 10 50 paramGroup1 1.0000 0.0000 1
mactrsm_100 fixed relative 0.675 0.5 0.85 paramGroup1 1.0000 0.0000 1
mactrsm_101 fixed relative 0.675 0.5 0.85 paramGroup1 1.0000 0.0000 1
mactrsm_102 fixed relative 0.675 0.5 0.85 paramGroup1 1.0000 0.0000 1
mactrsm_103 fixed relative 0.675 0.5 0.85 paramGroup1 1.0000 0.0000 1
mactrsm_104 fixed relative 0.675 0.5 0.85 paramGroup1 1.0000 0.0000 1
mactrsm_105 fixed relative 0.675 0.5 0.85 paramGroup1 1.0000 0.0000 1
mactrsm_106 fixed relative 0.675 0.5 0.85 paramGroup1 1.0000 0.0000 1
srrate_100 fixed relative 0.15 0.1 0.2 paramGroup1 1.0000 0.0000 1
srrate_101 none relative 0.15 0.1 0.2 paramGroup1 1.0000 0.0000 1
srrate_102 none relative 0.15 0.1 0.2 paramGroup1 1.0000 0.0000 1
srrate_103 none relative 0.15 0.1 0.2 paramGroup1 1.0000 0.0000 1
srrate_104 none relative 0.15 0.1 0.2 paramGroup1 1.0000 0.0000 1
srrate_105 none relative 0.15 0.1 0.2 paramGroup1 1.0000 0.0000 1
srrate_106 none relative 0.15 0.1 0.2 paramGroup1 1.0000 0.0000 1
wcwp_100 fixed relative 0.07 0.04 0.1 paramGroup1 1.0000 0.0000 1
wcwp_101 none relative 0.07 0.04 0.1 paramGroup1 1.0000 0.0000 1
wcwp_102 none relative 0.07 0.04 0.1 paramGroup1 1.0000 0.0000 1
wcwp_103 none relative 0.07 0.04 0.1 paramGroup1 1.0000 0.0000 1
wcwp_104 none relative 0.07 0.04 0.1 paramGroup1 1.0000 0.0000 1
wcwp_105 none relative 0.07 0.04 0.1 paramGroup1 1.0000 0.0000 1
wcwp_106 none relative 0.07 0.04 0.1 paramGroup1 1.0000 0.0000 1
wcfc_100 fixed relative 0.25 0.1 0.4 paramGroup1 1.0000 0.0000 1
wcfc_101 none relative 0.25 0.1 0.4 paramGroup1 1.0000 0.0000 1
wcfc_102 none relative 0.25 0.1 0.5 paramGroup1 1.0000 0.0000 1
wcfc_103 none relative 0.25 0.1 0.4 paramGroup1 1.0000 0.0000 1
wcfc_104 none relative 0.25 0.1 0.4 paramGroup1 1.0000 0.0000 1
wcfc_105 none relative 0.25 0.1 0.4 paramGroup1 1.0000 0.0000 1
wcfc_106 none relative 0.25 0.1 0.4 paramGroup1 1.0000 0.0000 1
wcep_100 fixed relative 0.055 0.01 0.1 paramGroup1 1.0000 0.0000 1
wcep_101 none relative 0.055 0.01 0.1 paramGroup1 1.0000 0.0000 1
wcep_102 none relative 0.055 0.01 0.1 paramGroup1 1.0000 0.0000 1
wcep_103 none relative 0.055 0.01 0.1 paramGroup1 1.0000 0.0000 1
wcep_104 none relative 0.055 0.01 0.35 paramGroup1 1.0000 0.0000 1
wcep_105 none relative 0.055 0.01 0.35 paramGroup1 1.0000 0.0000 1
wcep_106 none relative 0.055 0.01 0.1 paramGroup1 1.0000 0.0000 1
* observation groups
warmup_obs
calib_obs
valid_obs
* observation data
o1 0.0 0.0 warmup_obs
o2 0.0 0.0 warmup_obs
o3 0.0 0.0 warmup_obs
o4 0.0 0.0 warmup_obs
o5 0.0 0.0 warmup_obs
o6 0.0 0.0 warmup_obs
o7 0.0 0.0 warmup_obs
o8 0.0 0.0 warmup_obs
o9 0.0 0.0 warmup_obs
o10 0.0 0.0 warmup_obs
o11 0.0 0.0 warmup_obs
o12 0.0 0.0 warmup_obs
o13 0.0 0.0 warmup_obs
o14 0.0 0.0 warmup_obs
o15 0.0 0.0 warmup_obs
o16 0.0 0.0 warmup_obs
o17 0.0 0.0 warmup_obs
o18 0.0 0.0 warmup_obs
o19 0.0 0.0 warmup_obs
o20 0.0 0.0 warmup_obs
o21 0.0 0.0 warmup_obs
o22 0.0 0.0 warmup_obs
o23 0.0 0.0 warmup_obs
o24 0.0 0.0 warmup_obs
o25 0.0 0.0 warmup_obs
o26 0.0 0.0 warmup_obs
o27 0.0 0.0 warmup_obs
o28 0.0 0.0 warmup_obs
o29 0.0 0.0 warmup_obs
o30 0.0 0.0 warmup_obs
o31 0.0 0.0 warmup_obs
o32 0.0 0.0 warmup_obs
o33 0.0 0.0 warmup_obs
o34 0.0 0.0 warmup_obs
o35 0.0 0.0 warmup_obs
o36 0.0 0.0 warmup_obs
o37 0.0 0.0 warmup_obs
o38 0.0 0.0 warmup_obs
o39 0.0 0.0 warmup_obs
o40 0.0 0.0 warmup_obs
o41 0.0 0.0 warmup_obs
o42 0.0 0.0 warmup_obs
o43 0.0 0.0 warmup_obs
o44 0.0 0.0 warmup_obs
o45 0.0 0.0 warmup_obs
o46 0.0 0.0 warmup_obs
o47 0.0 0.0 warmup_obs
o48 0.0 0.0 warmup_obs
o49 0.0 0.0 warmup_obs
o50 0.0 0.0 warmup_obs
o51 0.0 0.0 warmup_obs
o52 0.0 0.0 warmup_obs
o53 0.0 0.0 warmup_obs
o54 0.0 0.0 warmup_obs
o55 0.0 0.0 warmup_obs
o56 0.0 0.0 warmup_obs
o57 0.0 0.0 warmup_obs
o58 0.0 0.0 warmup_obs
o59 0.0 0.0 warmup_obs
o60 0.0 0.0 warmup_obs
o61 0.0 0.0 warmup_obs
o62 0.0 0.0 warmup_obs
o63 0.0 0.0 warmup_obs
o64 0.0 0.0 warmup_obs
o65 0.0 0.0 warmup_obs
o66 0.0 0.0 warmup_obs
o67 0.0 0.0 warmup_obs
o68 0.0 0.0 warmup_obs
o69 0.0 0.0 warmup_obs
o70 0.0 0.0 warmup_obs
o71 0.0 0.0 warmup_obs
o72 0.0 0.0 warmup_obs
o73 0.0 0.0 warmup_obs
o74 0.0 0.0 warmup_obs
o75 0.0 0.0 warmup_obs
o76 0.0 0.0 warmup_obs
o77 0.0 0.0 warmup_obs
o78 0.0 0.0 warmup_obs
o79 0.0 0.0 warmup_obs
o80 0.0 0.0 warmup_obs
o81 0.0 0.0 warmup_obs
o82 0.0 0.0 warmup_obs
o83 0.0 0.0 warmup_obs
o84 0.0 0.0 warmup_obs
o85 0.0 0.0 warmup_obs
o86 0.0 0.0 warmup_obs
o87 0.0 0.0 warmup_obs
o88 0.0 0.0 warmup_obs
o89 0.0 0.0 warmup_obs
o90 0.0 0.0 warmup_obs
o91 0.0 0.0 warmup_obs
o92 0.0 0.0 warmup_obs
o93 0.0 0.0 warmup_obs
o94 0.0 0.0 warmup_obs
o95 0.0 0.0 warmup_obs
o96 0.0 0.0 warmup_obs
o97 0.0 0.0 warmup_obs
o98 0.0 0.0 warmup_obs
o99 0.0 0.0 warmup_obs
o100 0.0 0.0 warmup_obs
o101 0.0 0.0 warmup_obs
o102 0.0 0.0 warmup_obs
o103 0.0 0.0 warmup_obs
o104 0.0 0.0 warmup_obs
o105 0.0 0.0 warmup_obs
o106 0.0 0.0 warmup_obs
o107 0.0 0.0 warmup_obs
o108 0.0 0.0 warmup_obs
o109 0.0 0.0 warmup_obs
o110 0.0 0.0 warmup_obs
o111 0.0 0.0 warmup_obs
o112 0.0 0.0 warmup_obs
o113 0.0 0.0 warmup_obs
o114 0.0 0.0 warmup_obs
o115 0.0 0.0 warmup_obs
o116 0.0 0.0 warmup_obs
o117 0.0 0.0 warmup_obs
o118 0.0 0.0 warmup_obs
o119 0.0 0.0 warmup_obs
o120 0.0 0.0 warmup_obs
o121 0.0 0.0 warmup_obs
o122 0.0 0.0 warmup_obs
o123 0.0 0.0 warmup_obs
o124 0.0 0.0 warmup_obs
o125 0.0 0.0 warmup_obs
o126 0.0 0.0 warmup_obs
o127 0.0 0.0 warmup_obs
o128 0.0 0.0 warmup_obs
o129 0.0 0.0 warmup_obs
o130 0.0 0.0 warmup_obs
o131 0.0 0.0 warmup_obs
o132 0.0 0.0 warmup_obs
o133 0.0 0.0 warmup_obs
o134 0.0 0.0 warmup_obs
o135 0.0 0.0 warmup_obs
o136 0.0 0.0 warmup_obs
o137 0.0 0.0 warmup_obs
o138 0.0 0.0 warmup_obs
o139 0.0 0.0 warmup_obs
o140 0.0 0.0 warmup_obs
o141 0.0 0.0 warmup_obs
o142 0.0 0.0 warmup_obs
o143 0.0 0.0 warmup_obs
o144 0.0 0.0 warmup_obs
o145 0.0 0.0 warmup_obs
o146 0.0 0.0 warmup_obs
o147 0.0 0.0 warmup_obs
o148 0.0 0.0 warmup_obs
o149 0.0 0.0 warmup_obs
o150 0.0 0.0 warmup_obs
o151 0.0 0.0 warmup_obs
o152 0.0 0.0 warmup_obs
o153 0.0 0.0 warmup_obs
o154 0.0 0.0 warmup_obs
o155 0.0 0.0 warmup_obs
o156 0.0 0.0 warmup_obs
o157 0.0 0.0 warmup_obs
o158 0.0 0.0 warmup_obs
o159 0.0 0.0 warmup_obs
o160 0.0 0.0 warmup_obs
o161 0.0 0.0 warmup_obs
o162 0.0 0.0 warmup_obs
o163 0.0 0.0 warmup_obs
o164 0.0 0.0 warmup_obs
o165 0.0 0.0 warmup_obs
o166 0.0 0.0 warmup_obs
o167 0.0 0.0 warmup_obs
o168 0.0 0.0 warmup_obs
o169 0.0 0.0 warmup_obs
o170 0.0 0.0 warmup_obs
o171 0.0 0.0 warmup_obs
o172 0.0 0.0 warmup_obs
o173 0.0 0.0 warmup_obs
o174 0.0 0.0 warmup_obs
o175 0.0 0.0 warmup_obs
o176 0.0 0.0 warmup_obs
o177 0.0 0.0 warmup_obs
o178 0.0 0.0 warmup_obs
o179 0.0 0.0 warmup_obs
o180 0.0 0.0 warmup_obs
o181 0.0 0.0 warmup_obs
o182 0.0 0.0 warmup_obs
o183 0.0 0.0 warmup_obs
o184 0.0 0.0 warmup_obs
o185 0.0 0.0 warmup_obs
o186 0.0 0.0 warmup_obs
o187 0.0 0.0 warmup_obs
o188 0.0 0.0 warmup_obs
o189 0.0 0.0 warmup_obs
o190 0.0 0.0 warmup_obs
o191 0.0 0.0 warmup_obs
o192 0.0 0.0 warmup_obs
o193 0.0 0.0 warmup_obs
o194 0.0 0.0 warmup_obs
o195 0.0 0.0 warmup_obs
o196 0.0 0.0 warmup_obs
o197 0.0 0.0 warmup_obs
o198 0.0 0.0 warmup_obs
o199 0.0 0.0 warmup_obs
o200 0.0 0.0 warmup_obs
o201 0.0 0.0 warmup_obs
o202 0.0 0.0 warmup_obs
o203 0.0 0.0 warmup_obs
o204 0.0 0.0 warmup_obs
o205 0.0 0.0 warmup_obs
o206 0.0 0.0 warmup_obs
o207 0.0 0.0 warmup_obs
o208 0.0 0.0 warmup_obs
o209 0.0 0.0 warmup_obs
o210 0.0 0.0 warmup_obs
o211 0.0 0.0 warmup_obs
o212 0.0 0.0 warmup_obs
o213 0.0 0.0 warmup_obs
o214 0.0 0.0 warmup_obs
o215 0.0 0.0 warmup_obs
o216 0.0 0.0 warmup_obs
o217 0.0 0.0 warmup_obs
o218 0.0 0.0 warmup_obs
o219 0.0 0.0 warmup_obs
o220 0.0 0.0 warmup_obs
o221 0.0 0.0 warmup_obs
o222 0.0 0.0 warmup_obs
o223 0.0 0.0 warmup_obs
o224 0.0 0.0 warmup_obs
o225 0.0 0.0 warmup_obs
o226 0.0 0.0 warmup_obs
o227 0.0 0.0 warmup_obs
o228 0.0 0.0 warmup_obs
o229 0.0 0.0 warmup_obs
o230 0.0 0.0 warmup_obs
o231 0.0 0.0 warmup_obs
o232 0.0 0.0 warmup_obs
o233 0.0 0.0 warmup_obs
o234 0.0 0.0 warmup_obs
o235 0.0 0.0 warmup_obs
o236 0.0 0.0 warmup_obs
o237 0.0 0.0 warmup_obs
o238 0.0 0.0 warmup_obs
o239 0.0 0.0 warmup_obs
o240 0.0 0.0 warmup_obs
o241 0.0 0.0 warmup_obs
o242 0.0 0.0 warmup_obs
o243 0.0 0.0 warmup_obs
o244 0.0 0.0 warmup_obs
o245 0.0 0.0 warmup_obs
o246 0.0 0.0 warmup_obs
o247 0.0 0.0 warmup_obs
o248 0.0 0.0 warmup_obs
o249 0.0 0.0 warmup_obs
o250 0.0 0.0 warmup_obs
o251 0.0 0.0 warmup_obs
o252 0.0 0.0 warmup_obs
o253 0.0 0.0 warmup_obs
o254 0.0 0.0 warmup_obs
o255 0.0 0.0 warmup_obs
o256 0.0 0.0 warmup_obs
o257 0.0 0.0 warmup_obs
o258 0.0 0.0 warmup_obs
o259 0.0 0.0 warmup_obs
o260 0.0 0.0 warmup_obs
o261 0.0 0.0 warmup_obs
o262 0.0 0.0 warmup_obs
o263 0.0 0.0 warmup_obs
o264 0.0 0.0 warmup_obs
o265 0.0 0.0 warmup_obs
o266 0.0 0.0 warmup_obs
o267 0.0 0.0 warmup_obs
o268 0.0 0.0 warmup_obs
o269 0.0 0.0 warmup_obs
o270 0.0 0.0 warmup_obs
o271 0.0 0.0 warmup_obs
o272 0.0 0.0 warmup_obs
o273 0.0 0.0 warmup_obs
o274 0.0 0.0 warmup_obs
o275 0.0 0.0 warmup_obs
o276 0.0 0.0 warmup_obs
o277 0.0 0.0 warmup_obs
o278 0.0 0.0 warmup_obs
o279 0.0 0.0 warmup_obs
o280 0.0 0.0 warmup_obs
o281 0.0 0.0 warmup_obs
o282 0.0 0.0 warmup_obs
o283 0.0 0.0 warmup_obs
o284 0.0 0.0 warmup_obs
o285 0.0 0.0 warmup_obs
o286 0.0 0.0 warmup_obs
o287 0.0 0.0 warmup_obs
o288 0.0 0.0 warmup_obs
o289 0.0 0.0 warmup_obs
o290 0.0 0.0 warmup_obs
o291 0.0 0.0 warmup_obs
o292 0.0 0.0 warmup_obs
o293 0.0 0.0 warmup_obs
o294 0.0 0.0 warmup_obs
o295 0.0 0.0 warmup_obs
o296 0.0 0.0 warmup_obs
o297 0.0 0.0 warmup_obs
o298 0.0 0.0 warmup_obs
o299 0.0 0.0 warmup_obs
o300 0.0 0.0 warmup_obs
o301 0.0 0.0 warmup_obs
o302 0.0 0.0 warmup_obs
o303 0.0 0.0 warmup_obs
o304 0.0 0.0 warmup_obs
o305 0.0 0.0 warmup_obs
o306 0.0 0.0 warmup_obs
o307 0.0 0.0 warmup_obs
o308 0.0 0.0 warmup_obs
o309 0.0 0.0 warmup_obs
o310 0.0 0.0 warmup_obs
o311 0.0 0.0 warmup_obs
o312 0.0 0.0 warmup_obs
o313 0.0 0.0 warmup_obs
o314 0.0 0.0 warmup_obs
o315 0.0 0.0 warmup_obs
o316 0.0 0.0 warmup_obs
o317 0.0 0.0 warmup_obs
o318 0.0 0.0 warmup_obs
o319 0.0 0.0 warmup_obs
o320 0.0 0.0 warmup_obs
o321 0.0 0.0 warmup_obs
o322 0.0 0.0 warmup_obs
o323 0.0 0.0 warmup_obs
o324 0.0 0.0 warmup_obs
o325 0.0 0.0 warmup_obs
o326 0.0 0.0 warmup_obs
o327 0.0 0.0 warmup_obs
o328 0.0 0.0 warmup_obs
o329 0.0 0.0 warmup_obs
o330 0.0 0.0 warmup_obs
o331 0.0 0.0 warmup_obs
o332 0.0 0.0 warmup_obs
o333 0.0 0.0 warmup_obs
o334 0.0 0.0 warmup_obs
o335 0.0 0.0 warmup_obs
o336 0.0 0.0 warmup_obs
o337 0.0 0.0 warmup_obs
o338 0.0 0.0 warmup_obs
o339 0.0 0.0 warmup_obs
o340 0.0 0.0 warmup_obs
o341 0.0 0.0 warmup_obs
o342 0.0 0.0 warmup_obs
o343 0.0 0.0 warmup_obs
o344 0.0 0.0 warmup_obs
o345 0.0 0.0 warmup_obs
o346 0.0 0.0 warmup_obs
o347 0.0 0.0 warmup_obs
o348 0.0 0.0 warmup_obs
o349 0.0 0.0 warmup_obs
o350 0.0 0.0 warmup_obs
o351 0.0 0.0 warmup_obs
o352 0.0 0.0 warmup_obs
o353 0.0 0.0 warmup_obs
o354 0.0 0.0 warmup_obs
o355 0.0 0.0 warmup_obs
o356 0.0 0.0 warmup_obs
o357 0.0 0.0 warmup_obs
o358 0.0 0.0 warmup_obs
o359 0.0 0.0 warmup_obs
o360 0.0 0.0 warmup_obs
o361 0.0 0.0 warmup_obs
o362 0.0 0.0 warmup_obs
o363 0.0 0.0 warmup_obs
o364 0.0 0.0 warmup_obs
o365 0.0 0.0 warmup_obs
o366 0.0 0.0 warmup_obs
o367 0.0 0.0 calib_obs
o368 0.0 0.0 calib_obs
o369 0.0 0.0 calib_obs
o370 0.0 0.0 calib_obs
o371 0.0 0.0 calib_obs
o372 0.0 0.0 calib_obs
o373 0.0 0.0 calib_obs
o374 0.0 0.0 calib_obs
o375 0.0 0.0 calib_obs
o376 0.0 0.0 calib_obs
o377 0.0 0.0 calib_obs
o378 0.0 0.0 calib_obs
o379 0.0 0.0 calib_obs
o380 0.0 0.0 calib_obs
o381 0.0 0.0 calib_obs
o382 0.0 0.0 calib_obs
o383 0.0 0.0 calib_obs
o384 0.0 0.0 calib_obs
o385 0.0 0.0 calib_obs
o386 0.0 0.0 calib_obs
o387 0.0 0.0 calib_obs
o388 0.0 0.0 calib_obs
o389 0.0 0.0 calib_obs
o390 0.0 0.0 calib_obs
o391 0.0 0.0 calib_obs
o392 0.0 0.0 calib_obs
o393 0.0 0.0 calib_obs
o394 0.0 0.0 calib_obs
o395 0.0 0.0 calib_obs
o396 0.0 0.0 calib_obs
o397 0.0 0.0 calib_obs
o398 0.0 0.0 calib_obs
o399 0.0 0.0 calib_obs
o400 0.0 0.0 calib_obs
o401 0.0 0.0 calib_obs
o402 0.0 0.0 calib_obs
o403 0.0 0.0 calib_obs
o404 0.0 0.0 calib_obs
o405 0.0 0.0 calib_obs
o406 0.0 0.0 calib_obs
o407 0.0 0.0 calib_obs
o408 0.0 0.0 calib_obs
o409 0.0 0.0 calib_obs
o410 0.0 0.0 calib_obs
o411 0.0 0.0 calib_obs
o412 0.0 0.0 calib_obs
o413 0.0 0.0 calib_obs
o414 0.0 0.0 calib_obs
o415 0.0 0.0 calib_obs
o416 0.0 0.0 calib_obs
o417 0.0 0.0 calib_obs
o418 0.0 0.0 calib_obs
o419 0.0 0.0 calib_obs
o420 0.0 0.0 calib_obs
o421 0.0 0.0 calib_obs
o422 0.0 0.0 calib_obs
o423 0.0 0.0 calib_obs
o424 0.0 0.0 calib_obs
o425 0.0 0.0 calib_obs
o426 0.0 0.0 calib_obs
o427 0.0 0.0 calib_obs
o428 0.0 0.0 calib_obs
o429 0.0 0.0 calib_obs
o430 0.0 0.0 calib_obs
o431 0.0 0.0 calib_obs
o432 0.0 0.0 calib_obs
o433 0.0 0.0 calib_obs
o434 0.0 0.0 calib_obs
o435 0.0 0.0 calib_obs
o436 0.0 0.0 calib_obs
o437 0.0 0.0 calib_obs
o438 0.0 0.0 calib_obs
o439 0.0 0.0 calib_obs
o440 0.0 0.0 calib_obs
o441 0.0 0.0 calib_obs
o442 0.0 0.0 calib_obs
o443 0.0 0.0 calib_obs
o444 0.0 0.0 calib_obs
o445 0.0 0.0 calib_obs
o446 0.0 0.0 calib_obs
o447 0.0 0.0 calib_obs
o448 0.0 0.0 calib_obs
o449 0.0 0.0 calib_obs
o450 0.0 0.0 calib_obs
o451 0.0 0.0 calib_obs
o452 0.0 0.0 calib_obs
o453 0.0 0.0 calib_obs
o454 0.0 0.0 calib_obs
o455 0.0 0.0 calib_obs
o456 0.0 0.0 calib_obs
o457 0.0 0.0 calib_obs
o458 0.0 0.0 calib_obs
o459 0.0 0.0 calib_obs
o460 0.0 0.0 calib_obs
o461 0.0 0.0 calib_obs
o462 0.0 0.0 calib_obs
o463 0.0 0.0 calib_obs
o464 0.0 0.0 calib_obs
o465 0.0 0.0 calib_obs
o466 0.0 0.0 calib_obs
o467 0.0 0.0 calib_obs
o468 0.0 0.0 calib_obs
o469 0.0 0.0 calib_obs
o470 0.0 0.0 calib_obs
o471 0.0 0.0 calib_obs
o472 0.0 0.0 calib_obs
o473 0.0 0.0 calib_obs
o474 0.0 0.0 calib_obs
o475 0.0 0.0 calib_obs
o476 0.0 0.0 calib_obs
o477 0.0 0.0 calib_obs
o478 0.0 0.0 calib_obs
o479 0.0 0.0 calib_obs
o480 0.0 0.0 calib_obs
o481 0.0 0.0 calib_obs
o482 0.0 0.0 calib_obs
o483 0.0 0.0 calib_obs
o484 0.0 0.0 calib_obs
o485 0.0 0.0 calib_obs
o486 0.0 0.0 calib_obs
o487 0.0 0.0 calib_obs
o488 0.0 0.0 calib_obs
o489 0.0 0.0 calib_obs
o490 0.0 0.0 calib_obs
o491 0.0 0.0 calib_obs
o492 0.0 0.0 calib_obs
o493 0.0 0.0 calib_obs
o494 0.0 0.0 calib_obs
o495 0.0 0.0 calib_obs
o496 0.0 0.0 calib_obs
o497 0.0 0.0 calib_obs
o498 0.0 0.0 calib_obs
o499 0.0 0.0 calib_obs
o500 0.0 0.0 calib_obs
o501 0.0 0.0 calib_obs
o502 0.0 0.0 calib_obs
o503 0.0 0.0 calib_obs
o504 0.0 0.0 calib_obs
o505 0.0 0.0 calib_obs
o506 0.0 0.0 calib_obs
o507 0.0 0.0 calib_obs
o508 0.0 0.0 calib_obs
o509 0.0 0.0 calib_obs
o510 0.0 0.0 calib_obs
o511 0.0 0.0 calib_obs
o512 0.0 0.0 calib_obs
o513 0.0 0.0 calib_obs
o514 0.0 0.0 calib_obs
o515 0.0 0.0 calib_obs
o516 0.0 0.0 calib_obs
o517 0.0 0.0 calib_obs
o518 0.0 0.0 calib_obs
o519 0.0 0.0 calib_obs
o520 0.0 0.0 calib_obs
o521 0.0 0.0 calib_obs
o522 0.0 0.0 calib_obs
o523 0.0 0.0 calib_obs
o524 0.0 0.0 calib_obs
o525 0.0 0.0 calib_obs
o526 0.0 0.0 calib_obs
o527 0.0 0.0 calib_obs
o528 0.0 0.0 calib_obs
o529 0.0 0.0 calib_obs
o530 0.0 0.0 calib_obs
o531 0.0 0.0 calib_obs
o532 0.0 0.0 calib_obs
o533 0.0 0.0 calib_obs
o534 0.0 0.0 calib_obs
o535 0.0 0.0 calib_obs
o536 0.0 0.0 calib_obs
o537 0.0 0.0 calib_obs
o538 0.0 0.0 calib_obs
o539 0.0 0.0 calib_obs
o540 0.0 0.0 calib_obs
o541 0.0 0.0 calib_obs
o542 0.0 0.0 calib_obs
o543 0.0 0.0 calib_obs
o544 0.0 0.0 calib_obs
o545 0.0 0.0 calib_obs
o546 0.0 0.0 calib_obs
o547 0.0 0.0 calib_obs
o548 0.0 0.0 calib_obs
o549 0.0 0.0 calib_obs
o550 0.0 0.0 calib_obs
o551 0.0 0.0 calib_obs
o552 0.0 0.0 calib_obs
o553 0.0 0.0 calib_obs
o554 0.0 0.0 calib_obs
o555 0.0 0.0 calib_obs
o556 0.0 0.0 calib_obs
o557 0.0 0.0 calib_obs
o558 0.0 0.0 calib_obs
o559 0.0 0.0 calib_obs
o560 0.0 0.0 calib_obs
o561 0.0 0.0 calib_obs
o562 0.0 0.0 calib_obs
o563 0.0 0.0 calib_obs
o564 0.0 0.0 calib_obs
o565 0.0 0.0 calib_obs
o566 0.0 0.0 calib_obs
o567 0.0 0.0 calib_obs
o568 0.0 0.0 calib_obs
o569 0.0 0.0 calib_obs
o570 0.0 0.0 calib_obs
o571 0.0 0.0 calib_obs
o572 0.0 0.0 calib_obs
o573 0.0 0.0 calib_obs
o574 0.0 0.0 calib_obs
o575 0.0 0.0 calib_obs
o576 0.0 0.0 calib_obs
o577 0.0 0.0 calib_obs
o578 0.0 0.0 calib_obs
o579 0.0 0.0 calib_obs
o580 0.0 0.0 calib_obs
o581 0.0 0.0 calib_obs
o582 0.0 0.0 calib_obs
o583 0.0 0.0 calib_obs
o584 0.0 0.0 calib_obs
o585 0.0 0.0 calib_obs
o586 0.0 0.0 calib_obs
o587 0.0 0.0 calib_obs
o588 0.0 0.0 calib_obs
o589 0.0 0.0 calib_obs
o590 0.0 0.0 calib_obs
o591 0.0 0.0 calib_obs
o592 0.0 0.0 calib_obs
o593 0.0 0.0 calib_obs
o594 0.0 0.0 calib_obs
o595 0.0 0.0 calib_obs
o596 0.0 0.0 calib_obs
o597 0.0 0.0 calib_obs
o598 0.0 0.0 calib_obs
o599 0.0 0.0 calib_obs
o600 0.0 0.0 calib_obs
o601 0.0 0.0 calib_obs
o602 0.0 0.0 calib_obs
o603 0.0 0.0 calib_obs
o604 0.0 0.0 calib_obs
o605 0.0 0.0 calib_obs
o606 0.0 0.0 calib_obs
o607 0.0 0.0 calib_obs
o608 0.0 0.0 calib_obs
o609 0.0 0.0 calib_obs
o610 0.0 0.0 calib_obs
o611 0.0 0.0 calib_obs
o612 0.0 0.0 calib_obs
o613 0.0 0.0 calib_obs
o614 0.0 0.0 calib_obs
o615 0.0 0.0 calib_obs
o616 0.0 0.0 calib_obs
o617 0.0 0.0 calib_obs
o618 0.0 0.0 calib_obs
o619 0.0 0.0 calib_obs
o620 0.0 0.0 calib_obs
o621 0.0 0.0 calib_obs
o622 0.0 0.0 calib_obs
o623 0.0 0.0 calib_obs
o624 0.0 0.0 calib_obs
o625 0.0 0.0 calib_obs
o626 0.0 0.0 calib_obs
o627 0.0 0.0 calib_obs
o628 0.0 0.0 calib_obs
o629 0.0 0.0 calib_obs
o630 0.0 0.0 calib_obs
o631 0.0 0.0 calib_obs
o632 0.0 0.0 calib_obs
o633 0.0 0.0 calib_obs
o634 0.0 0.0 calib_obs
o635 0.0 0.0 calib_obs
o636 0.0 0.0 calib_obs
o637 0.0 0.0 calib_obs
o638 0.0 0.0 calib_obs
o639 0.0 0.0 calib_obs
o640 0.0 0.0 calib_obs
o641 0.0 0.0 calib_obs
o642 0.0 0.0 calib_obs
o643 0.0 0.0 calib_obs
o644 0.0 0.0 calib_obs
o645 0.0 0.0 calib_obs
o646 0.0 0.0 calib_obs
o647 0.0 0.0 calib_obs
o648 0.0 0.0 calib_obs
o649 0.0 0.0 calib_obs
o650 0.0 0.0 calib_obs
o651 0.0 0.0 calib_obs
o652 0.0 0.0 calib_obs
o653 0.0 0.0 calib_obs
o654 0.0 0.0 calib_obs
o655 0.0 0.0 calib_obs
o656 0.0 0.0 calib_obs
o657 0.0 0.0 calib_obs
o658 0.0 0.0 calib_obs
o659 0.0 0.0 calib_obs
o660 0.0 0.0 calib_obs
o661 0.0 0.0 calib_obs
o662 0.0 0.0 calib_obs
o663 0.0 0.0 calib_obs
o664 0.0 0.0 calib_obs
o665 0.0 0.0 calib_obs
o666 0.0 0.0 calib_obs
o667 0.0 0.0 calib_obs
o668 0.0 0.0 calib_obs
o669 0.0 0.0 calib_obs
o670 0.0 0.0 calib_obs
o671 0.0 0.0 calib_obs
o672 0.0 0.0 calib_obs
o673 0.0 0.0 calib_obs
o674 0.0 0.0 calib_obs
o675 0.0 0.0 calib_obs
o676 0.0 0.0 calib_obs
o677 0.0 0.0 calib_obs
o678 0.0 0.0 calib_obs
o679 0.0 0.0 calib_obs
o680 0.0 0.0 calib_obs
o681 0.0 0.0 calib_obs
o682 0.0 0.0 calib_obs
o683 0.0 0.0 calib_obs
o684 0.0 0.0 calib_obs
o685 0.0 0.0 calib_obs
o686 0.0 0.0 calib_obs
o687 0.0 0.0 calib_obs
o688 0.0 0.0 calib_obs
o689 0.0 0.0 calib_obs
o690 0.0 0.0 calib_obs
o691 0.0 0.0 calib_obs
o692 0.0 0.0 calib_obs
o693 0.0 0.0 calib_obs
o694 0.0 0.0 calib_obs
o695 0.0 0.0 calib_obs
o696 0.0 0.0 calib_obs
o697 0.0 0.0 calib_obs
o698 0.0 0.0 calib_obs
o699 0.0 0.0 calib_obs
o700 0.0 0.0 calib_obs
o701 0.0 0.0 calib_obs
o702 0.0 0.0 calib_obs
o703 0.0 0.0 calib_obs
o704 0.0 0.0 calib_obs
o705 0.0 0.0 calib_obs
o706 0.0 0.0 calib_obs
o707 0.0 0.0 calib_obs
o708 0.0 0.0 calib_obs
o709 0.0 0.0 calib_obs
o710 0.0 0.0 calib_obs
o711 0.0 0.0 calib_obs
o712 0.0 0.0 calib_obs
o713 0.0 0.0 calib_obs
o714 0.0 0.0 calib_obs
o715 0.0 0.0 calib_obs
o716 0.0 0.0 calib_obs
o717 0.0 0.0 calib_obs
o718 0.0 0.0 calib_obs
o719 0.0 0.0 calib_obs
o720 0.0 0.0 calib_obs
o721 0.0 0.0 calib_obs
o722 0.0 0.0 calib_obs
o723 0.0 0.0 calib_obs
o724 0.0 0.0 calib_obs
o725 0.0 0.0 calib_obs
o726 0.0 0.0 calib_obs
o727 0.0 0.0 calib_obs
o728 0.0 0.0 calib_obs
o729 0.0 0.0 calib_obs
o730 0.0 0.0 calib_obs
o731 0.0 0.0 calib_obs
o732 0.0 0.0 calib_obs
o733 0.0 0.0 calib_obs
o734 0.0 0.0 calib_obs
o735 0.0 0.0 calib_obs
o736 0.0 0.0 calib_obs
o737 0.0 0.0 calib_obs
o738 0.0 0.0 calib_obs
o739 0.0 0.0 calib_obs
o740 0.0 0.0 calib_obs
o741 0.0 0.0 calib_obs
o742 0.0 0.0 calib_obs
o743 0.0 0.0 calib_obs
o744 0.0 0.0 calib_obs
o745 0.0 0.0 calib_obs
o746 0.0 0.0 calib_obs
o747 0.0 0.0 calib_obs
o748 0.0 0.0 calib_obs
o749 0.0 0.0 calib_obs
o750 0.0 0.0 calib_obs
o751 0.0 0.0 calib_obs
o752 0.0 0.0 calib_obs
o753 0.0 0.0 calib_obs
o754 0.0 0.0 calib_obs
o755 0.0 0.0 calib_obs
o756 0.0 0.0 calib_obs
o757 0.0 0.0 calib_obs
o758 0.0 0.0 calib_obs
o759 0.0 0.0 calib_obs
o760 0.0 0.0 calib_obs
o761 0.0 0.0 calib_obs
o762 0.0 0.0 calib_obs
o763 0.0 0.0 calib_obs
o764 0.0 0.0 calib_obs
o765 0.0 0.0 calib_obs
o766 0.0 0.0 calib_obs
o767 0.0 0.0 calib_obs
o768 0.0 0.0 calib_obs
o769 0.0 0.0 calib_obs
o770 0.0 0.0 calib_obs
o771 0.0 0.0 calib_obs
o772 0.0 0.0 calib_obs
o773 0.0 0.0 calib_obs
o774 0.0 0.0 calib_obs
o775 0.0 0.0 calib_obs
o776 0.0 0.0 calib_obs
o777 0.0 0.0 calib_obs
o778 0.0 0.0 calib_obs
o779 0.0 0.0 calib_obs
o780 0.0 0.0 calib_obs
o781 0.0 0.0 calib_obs
o782 0.0 0.0 calib_obs
o783 0.0 0.0 calib_obs
o784 0.0 0.0 calib_obs
o785 0.0 0.0 calib_obs
o786 0.0 0.0 calib_obs
o787 0.0 0.0 calib_obs
o788 0.0 0.0 calib_obs
o789 0.0 0.0 calib_obs
o790 0.0 0.0 calib_obs
o791 0.0 0.0 calib_obs
o792 0.0 0.0 calib_obs
o793 0.0 0.0 calib_obs
o794 0.0 0.0 calib_obs
o795 0.0 0.0 calib_obs
o796 0.0 0.0 calib_obs
o797 0.0 0.0 calib_obs
o798 0.0 0.0 calib_obs
o799 0.0 0.0 calib_obs
o800 0.0 0.0 calib_obs
o801 0.0 0.0 calib_obs
o802 0.0 0.0 calib_obs
o803 0.0 0.0 calib_obs
o804 0.0 0.0 calib_obs
o805 0.0 0.0 calib_obs
o806 0.0 0.0 calib_obs
o807 0.0 0.0 calib_obs
o808 0.0 0.0 calib_obs
o809 0.0 0.0 calib_obs
o810 0.0 0.0 calib_obs
o811 0.0 0.0 calib_obs
o812 0.0 0.0 calib_obs
o813 0.0 0.0 calib_obs
o814 0.0 0.0 calib_obs
o815 0.0 0.0 calib_obs
o816 0.0 0.0 calib_obs
o817 0.0 0.0 calib_obs
o818 0.0 0.0 calib_obs
o819 0.0 0.0 calib_obs
o820 0.0 0.0 calib_obs
o821 0.0 0.0 calib_obs
o822 0.0 0.0 calib_obs
o823 0.0 0.0 calib_obs
o824 0.0 0.0 calib_obs
o825 0.0 0.0 calib_obs
o826 0.0 0.0 calib_obs
o827 0.0 0.0 calib_obs
o828 0.0 0.0 calib_obs
o829 0.0 0.0 calib_obs
o830 0.0 0.0 calib_obs
o831 0.0 0.0 calib_obs
o832 0.0 0.0 calib_obs
o833 0.0 0.0 calib_obs
o834 0.0 0.0 calib_obs
o835 0.0 0.0 calib_obs
o836 0.0 0.0 calib_obs
o837 0.0 0.0 calib_obs
o838 0.0 0.0 calib_obs
o839 0.0 0.0 calib_obs
o840 0.0 0.0 calib_obs
o841 0.0 0.0 calib_obs
o842 0.0 0.0 calib_obs
o843 0.0 0.0 calib_obs
o844 0.0 0.0 calib_obs
o845 0.0 0.0 calib_obs
o846 0.0 0.0 calib_obs
o847 0.0 0.0 calib_obs
o848 0.0 0.0 calib_obs
o849 0.0 0.0 calib_obs
o850 0.0 0.0 calib_obs
o851 0.0 0.0 calib_obs
o852 0.0 0.0 calib_obs
o853 0.0 0.0 calib_obs
o854 0.0 0.0 calib_obs
o855 0.0 0.0 calib_obs
o856 0.0 0.0 calib_obs
o857 0.0 0.0 calib_obs
o858 0.0 0.0 calib_obs
o859 0.0 0.0 calib_obs
o860 0.0 0.0 calib_obs
o861 0.0 0.0 calib_obs
o862 0.0 0.0 calib_obs
o863 0.0 0.0 calib_obs
o864 0.0 0.0 calib_obs
o865 0.0 0.0 calib_obs