pcf
* control data
restart estimation
146 3653 2 0 3
1 1 double point 1 0 0
10.0 5.0 0.5 0.005 20
5.0 5.0 0.005 0
0.01
50 0.01 8 8 0.01 8
1 1 1
* parameter groups
paramGroup1 relative 0.01 0.001 switch 2.0 parabolic
paramGroup2 absolute 0.05 0.001 switch 2.0 parabolic
* parameter data
ttpi none relative 1.0 0.0 2.0 paramGroup1 1.0000 0.0000 1
lp none relative 0.9 0.8 1.0 paramGroup1 1.0000 0.0000 1
cevpam fixed relative 0.5 0.5 0.5 paramGroup1 1.0000 0.0000 1
cevpph fixed relative 45 45 45 paramGroup1 1.0000 0.0000 1
rrcs3 fixed relative 0.0002 0.0002 0.0002 paramGroup1 1.0000 0.0000 1
damp none relative 0.255 0.01 0.95 paramGroup1 1.0000 0.0000 1
rivvel none relative 0.75 0.3 1 paramGroup1 1.0000 0.0000 1
tcalt fixed relative 0.6 0.6 0.6 paramGroup1 1.0000 0.0000 1
qmean fixed relative 25 25 25 paramGroup1 1.0000 0.0000 1
epotdist fixed relative 3 3 3 paramGroup1 1.0000 0.0000 1
gldepi none relative 3.0 1.0 10.0 paramGroup1 1.0000 0.0000 1
gratp none relative 2.25 2 2.5 paramGroup1 1.0000 0.0000 1
gratk none relative 1.0 0.05 2.0 paramGroup1 1.0000 0.0000 1
sdnsnew fixed relative 0.145 0.1 0.19 paramGroup1 1.0000 0.0000 1
snowdensdt fixed relative 0.0014 0.0014 0.0014 paramGroup1 1.0000 0.0000 1
ttmp_10 fixed relative 1.0 0.0 2.0 paramGroup1 1.0000 0.0000 1
ttmp_11 none relative 1.0 0.0 2.0 paramGroup1 1.0000 0.0000 1
ttmp_12 fixed relative 1.0 0.0 2.0 paramGroup1 1.0000 0.0000 1
ttmp_13 none relative 1.0 0.0 2.0 paramGroup1 1.0000 0.0000 1
ttmp_14 none relative 1.0 -1.0 2.0 paramGroup2 1.0000 0.0000 1
ttmp_15 none relative 1.0 0.0 2.0 paramGroup1 1.0000 0.0000 1
ttmp_16 none relative 1.0 0.0 2.0 paramGroup1 1.0000 0.0000 1
ttmp_17 none relative 1.0 -2.0 2.0 paramGroup2 1.0000 0.0000 1
cmlt_10 fixed relative 2.6 0.2 5.0 paramGroup1 1.0000 0.0000 1
cmlt_11 none relative 2.6 0.2 8.0 paramGroup1 1.0000 0.0000 1
cmlt_12 fixed relative 2.6 0.2 5.0 paramGroup1 1.0000 0.0000 1
cmlt_13 none relative 2.6 0.2 5.0 paramGroup1 1.0000 0.0000 1
cmlt_14 none relative 2.6 0.2 5.0 paramGroup1 1.0000 0.0000 1
cmlt_15 none relative 2.6 0.2 5.0 paramGroup1 1.0000 0.0000 1
cmlt_16 none relative 2.6 0.2 5.0 paramGroup1 1.0000 0.0000 1
cmlt_17 none relative 2.6 0.2 8.0 paramGroup1 1.0000 0.0000 1
cevp_10 fixed relative 0.15 0.1 0.2 paramGroup1 1.0000 0.0000 1
cevp_11 none relative 0.15 0.1 0.2 paramGroup1 1.0000 0.0000 1
cevp_12 fixed relative 0.15 0.1 0.2 paramGroup1 1.0000 0.0000 1
cevp_13 none relative 0.15 0.1 0.2 paramGroup1 1.0000 0.0000 1
cevp_14 none relative 0.15 0.1 0.2 paramGroup1 1.0000 0.0000 1
cevp_15 none relative 0.15 0.1 0.2 paramGroup1 1.0000 0.0000 1
cevp_16 none relative 0.15 0.1 0.2 paramGroup1 1.0000 0.0000 1
cevp_17 none relative 0.15 0.1 0.2 paramGroup1 1.0000 0.0000 1
srrcs_10 fixed relative 0.15 0.1 0.2 paramGroup1 1.0000 0.0000 1
srrcs_11 none relative 0.15 0.1 0.2 paramGroup1 1.0000 0.0000 1
srrcs_12 fixed relative 0.15 0.1 0.2 paramGroup1 1.0000 0.0000 1
srrcs_13 none relative 0.15 0.1 0.2 paramGroup1 1.0000 0.0000 1
srrcs_14 none relative 0.15 0.1 0.2 paramGroup1 1.0000 0.0000 1
srrcs_15 none relative 0.15 0.1 0.2 paramGroup1 1.0000 0.0000 1
srrcs_16 none relative 0.15 0.1 0.2 paramGroup1 1.0000 0.0000 1
srrcs_17 none relative 0.15 0.1 0.2 paramGroup1 1.0000 0.0000 1
frost_10 fixed relative 2.0 2.0 2.0 paramGroup1 1.0000 0.0000 1
frost_11 fixed relative 2.0 2.0 2.0 paramGroup1 1.0000 0.0000 1
frost_12 fixed relative 2.0 2.0 2.0 paramGroup1 1.0000 0.0000 1
frost_13 fixed relative 2.0 2.0 2.0 paramGroup1 1.0000 0.0000 1
frost_14 fixed relative 2.0 2.0 2.0 paramGroup1 1.0000 0.0000 1
frost_15 fixed relative 2.0 2.0 2.0 paramGroup1 1.0000 0.0000 1
frost_16 fixed relative 2.0 2.0 2.0 paramGroup1 1.0000 0.0000 1
frost_17 fixed relative 2.0 2.0 2.0 paramGroup1 1.0000 0.0000 1
rrcs1_100 fixed relative 0.375 0.05 0.7 paramGroup1 1.0000 0.0000 1
rrcs1_101 none relative 0.375 0.05 0.7 paramGroup1 1.0000 0.0000 1
rrcs1_102 none relative 0.375 0.05 0.7 paramGroup1 1.0000 0.0000 1
rrcs1_103 none relative 0.375 0.05 0.7 paramGroup1 1.0000 0.0000 1
rrcs1_104 none relative 0.375 0.05 0.7 paramGroup1 1.0000 0.0000 1
rrcs1_105 none relative 0.375 0.05 1.0 paramGroup1 1.0000 0.0000 1
rrcs1_106 none relative 0.375 0.05 0.7 paramGroup1 1.0000 0.0000 1
rrcs2_100 fixed relative 0.0255 0.001 0.05 paramGroup1 1.0000 0.0000 1
rrcs2_101 none relative 0.0255 0.001 0.05 paramGroup1 1.0000 0.0000 1
rrcs2_102 none relative 0.0255 0.001 0.05 paramGroup1 1.0000 0.0000 1
rrcs2_103 none relative 0.0255 0.001 0.05 paramGroup1 1.0000 0.0000 1
rrcs2_104 none relative 0.0255 0.001 0.05 paramGroup1 1.0000 0.0000 1
rrcs2_105 none relative 0.0255 0.001 0.05 paramGroup1 1.0000 0.0000 1
rrcs2_106 none relative 0.0255 0.001 0.05 paramGroup1 1.0000 0.0000 1
trrcs_100 fixed relative 0.2 0.1 0.3 paramGroup1 1.0000 0.0000 1
trrcs_101 fixed relative 0.2 0.1 0.3 paramGroup1 1.0000 0.0000 1
trrcs_102 fixed relative 0.2 0.1 0.3 paramGroup1 1.0000 0.0000 1
trrcs_103 fixed relative 0.2 0.1 0.3 paramGroup1 1.0000 0.0000 1
trrcs_104 fixed relative 0.2 0.1 0.3 paramGroup1 1.0000 0.0000 1
trrcs_105 fixed relative 0.2 0.1 0.3 paramGroup1 1.0000 0.0000 1
trrcs_106 fixed relative 0.2 0.1 0.3 paramGroup1 1.0000 0.0000 1
mperc1_100 fixed relative 65 30 100 paramGroup1 1.0000 0.0000 1
mperc1_101 fixed relative 65 30 100 paramGroup1 1.0000 0.0000 1
mperc1_102 fixed relative 65 30 100 paramGroup1 1.0000 0.0000 1
mperc1_103 fixed relative 65 30 100 paramGroup1 1.0000 0.0000 1
mperc1_104 fixed relative 65 30 100 paramGroup1 1.0000 0.0000 1
mperc1_105 fixed relative 65 30 100 paramGroup1 1.0000 0.0000 1
mperc1_106 fixed relative 65 30 100 paramGroup1 1.0000 0.0000 1
mperc2_100 fixed relative 65 30 100 paramGroup1 1.0000 0.0000 1
mperc2_101 fixed relative 65 30 100 paramGroup1 1.0000 0.0000 1
mperc2_102 fixed relative 65 30 100 paramGroup1 1.0000 0.0000 1
mperc2_103 fixed relative 65 30 100 paramGroup1 1.0000 0.0000 1
mperc2_104 fixed relative 65 30 100 paramGroup1 1.0000 0.0000 1
mperc2_105 fixed relative 65 30 100 paramGroup1 1.0000 0.0000 1
mperc2_106 fixed relative 65 30 100 paramGroup1 1.0000 0.0000 1
sfrost_100 fixed relative 1.0 1.0 1.0 paramGroup1 1.0000 0.0000 1
sfrost_101 fixed relative 1.0 1.0 1.0 paramGroup1 1.0000 0.0000 1
sfrost_102 fixed relative 1.0 1.0 1.0 paramGroup1 1.0000 0.0000 1
sfrost_103 fixed relative 1.0 1.0 1.0 paramGroup1 1.0000 0.0000 1
sfrost_104 fixed relative 1.0 1.0 1.0 paramGroup1 1.0000 0.0000 1
sfrost_105 fixed relative 1.0 1.0 1.0 paramGroup1 1.0000 0.0000 1
sfrost_106 fixed relative 1.0 1.0 1.0 paramGroup1 1.0000 0.0000 1
macrate_100 fixed relative 0.2 0.1 0.3 paramGroup1 1.0000 0.0000 1
macrate_101 none relative 0.2 0.1 0.3 paramGroup1 1.0000 0.0000 1
macrate_102 none relative 0.2 0.1 0.3 paramGroup1 1.0000 0.0000 1
macrate_103 none relative 0.2 0.1 0.3 paramGroup1 1.0000 0.0000 1
macrate_104 none relative 0.2 0.1 0.3 paramGroup1 1.0000 0.0000 1
macrate_105 none relative 0.2 0.1 0.3 paramGroup1 1.0000 0.0000 1
macrate_106 none relative 0.2 0.1 0.3 paramGroup1 1.0000 0.0000 1
mactrinf_100 fixed relative 30 10 50 paramGroup1 1.0000 0.0000 1
mactrinf_101 none relative 30 10 50 paramGroup1 1.0000 0.0000 1
mactrinf_102 none relative 30 10 50 paramGroup1 1.0000 0.0000 1
mactrinf_103 none relative 30 10 50 paramGroup1 1.0000 0.0000 1
mactrinf_104 none relative 30 10 50 paramGroup1 1.0000 0.0000 1
mactrinf_105 none relative 30 10 50 paramGroup1 1.0000 0.0000 1
mactrinf_106 none relative 30 10 50 paramGroup1 1.0000 0.0000 1
mactrsm_100 fixed relative 0.675 0.5 0.85 paramGroup1 1.0000 0.0000 1
mactrsm_101 fixed relative 0.675 0.5 0.85 paramGroup1 1.0000 0.0000 1
mactrsm_102 fixed relative 0.675 0.5 0.85 paramGroup1 1.0000 0.0000 1
mactrsm_103 fixed relative 0.675 0.5 0.85 paramGroup1 1.0000 0.0000 1
mactrsm_104 fixed relative 0.675 0.5 0.85 paramGroup1 1.0000 0.0000 1
mactrsm_105 fixed relative 0.675 0.5 0.85 paramGroup1 1.0000 0.0000 1
mactrsm_106 fixed relative 0.675 0.5 0.85 paramGroup1 1.0000 0.0000 1
srrate_100 fixed relative 0.15 0.1 0.2 paramGroup1 1.0000 0.0000 1
srrate_101 none relative 0.15 0.1 0.2 paramGroup1 1.0000 0.0000 1
srrate_102 none relative 0.15 0.1 0.2 paramGroup1 1.0000 0.0000 1
srrate_103 none relative 0.15 0.1 0.2 paramGroup1 1.0000 0.0000 1
srrate_104 none relative 0.15 0.1 0.2 paramGroup1 1.0000 0.0000 1
srrate_105 none relative 0.15 0.1 0.2 paramGroup1 1.0000 0.0000 1
srrate_106 none relative 0.15 0.1 0.2 paramGroup1 1.0000 0.0000 1
wcwp_100 fixed relative 0.07 0.04 0.1 paramGroup1 1.0000 0.0000 1
wcwp_101 none relative 0.07 0.04 0.1 paramGroup1 1.0000 0.0000 1
wcwp_102 none relative 0.07 0.04 0.1 paramGroup1 1.0000 0.0000 1
wcwp_103 none relative 0.07 0.04 0.1 paramGroup1 1.0000 0.0000 1
wcwp_104 none relative 0.07 0.04 0.1 paramGroup1 1.0000 0.0000 1
wcwp_105 none relative 0.07 0.04 0.1 paramGroup1 1.0000 0.0000 1
wcwp_106 none relative 0.07 0.04 0.1 paramGroup1 1.0000 0.0000 1
wcfc_100 fixed relative 0.25 0.1 0.4 paramGroup1 1.0000 0.0000 1
wcfc_101 none relative 0.25 0.1 0.4 paramGroup1 1.0000 0.0000 1
wcfc_102 none relative 0.25 0.1 0.5 paramGroup1 1.0000 0.0000 1
wcfc_103 none relative 0.25 0.1 0.4 paramGroup1 1.0000 0.0000 1
wcfc_104 none relative 0.25 0.1 0.4 paramGroup1 1.0000 0.0000 1
wcfc_105 none relative 0.25 0.1 0.4 paramGroup1 1.0000 0.0000 1
wcfc_106 none relative 0.25 0.1 0.4 paramGroup1 1.0000 0.0000 1
wcep_100 fixed relative 0.055 0.01 0.1 paramGroup1 1.0000 0.0000 1
wcep_101 none relative 0.055 0.01 0.1 paramGroup1 1.0000 0.0000 1
wcep_102 none relative 0.055 0.01 0.1 paramGroup1 1.0000 0.0000 1
wcep_103 none relative 0.055 0.01 0.1 paramGroup1 1.0000 0.0000 1
wcep_104 none relative 0.055 0.01 0.35 paramGroup1 1.0000 0.0000 1
wcep_105 none relative 0.055 0.01 0.35 paramGroup1 1.0000 0.0000 1
wcep_106 none relative 0.055 0.01 0.1 paramGroup1 1.0000 0.0000 1
* observation groups
warmup_obs
calib_obs
valid_obs
* observation data
o25572 0.0 0.0 warmup_obs
o25573 0.0 0.0 warmup_obs
o25574 0.0 0.0 warmup_obs
o25575 0.0 0.0 warmup_obs
o25576 0.0 0.0 warmup_obs
o25577 0.0 0.0 warmup_obs
o25578 0.0 0.0 warmup_obs
o25579 0.0 0.0 warmup_obs
o25580 0.0 0.0 warmup_obs
o25581 0.0 0.0 warmup_obs
o25582 0.0 0.0 warmup_obs
o25583 0.0 0.0 warmup_obs
o25584 0.0 0.0 warmup_obs
o25585 0.0 0.0 warmup_obs
o25586 0.0 0.0 warmup_obs
o25587 0.0 0.0 warmup_obs
o25588 0.0 0.0 warmup_obs
o25589 0.0 0.0 warmup_obs
o25590 0.0 0.0 warmup_obs
o25591 0.0 0.0 warmup_obs
o25592 0.0 0.0 warmup_obs
o25593 0.0 0.0 warmup_obs
o25594 0.0 0.0 warmup_obs
o25595 0.0 0.0 warmup_obs
o25596 0.0 0.0 warmup_obs
o25597 0.0 0.0 warmup_obs
o25598 0.0 0.0 warmup_obs
o25599 0.0 0.0 warmup_obs
o25600 0.0 0.0 warmup_obs
o25601 0.0 0.0 warmup_obs
o25602 0.0 0.0 warmup_obs
o25603 0.0 0.0 warmup_obs
o25604 0.0 0.0 warmup_obs
o25605 0.0 0.0 warmup_obs
o25606 0.0 0.0 warmup_obs
o25607 0.0 0.0 warmup_obs
o25608 0.0 0.0 warmup_obs
o25609 0.0 0.0 warmup_obs
o25610 0.0 0.0 warmup_obs
o25611 0.0 0.0 warmup_obs
o25612 0.0 0.0 warmup_obs
o25613 0.0 0.0 warmup_obs
o25614 0.0 0.0 warmup_obs
o25615 0.0 0.0 warmup_obs
o25616 0.0 0.0 warmup_obs
o25617 0.0 0.0 warmup_obs
o25618 0.0 0.0 warmup_obs
o25619 0.0 0.0 warmup_obs
o25620 0.0 0.0 warmup_obs
o25621 0.0 0.0 warmup_obs
o25622 0.0 0.0 warmup_obs
o25623 0.0 0.0 warmup_obs
o25624 0.0 0.0 warmup_obs
o25625 0.0 0.0 warmup_obs
o25626 0.0 0.0 warmup_obs
o25627 0.0 0.0 warmup_obs
o25628 0.0 0.0 warmup_obs
o25629 0.0 0.0 warmup_obs
o25630 0.0 0.0 warmup_obs
o25631 0.0 0.0 warmup_obs
o25632 0.0 0.0 warmup_obs
o25633 0.0 0.0 warmup_obs
o25634 0.0 0.0 warmup_obs
o25635 0.0 0.0 warmup_obs
o25636 0.0 0.0 warmup_obs
o25637 0.0 0.0 warmup_obs
o25638 0.0 0.0 warmup_obs
o25639 0.0 0.0 warmup_obs
o25640 0.0 0.0 warmup_obs
o25641 0.0 0.0 warmup_obs
o25642 0.0 0.0 warmup_obs
o25643 0.0 0.0 warmup_obs
o25644 0.0 0.0 warmup_obs
o25645 0.0 0.0 warmup_obs
o25646 0.0 0.0 warmup_obs
o25647 0.0 0.0 warmup_obs
o25648 0.0 0.0 warmup_obs
o25649 0.0 0.0 warmup_obs
o25650 0.0 0.0 warmup_obs
o25651 0.0 0.0 warmup_obs
o25652 0.0 0.0 warmup_obs
o25653 0.0 0.0 warmup_obs
o25654 0.0 0.0 warmup_obs
o25655 0.0 0.0 warmup_obs
o25656 0.0 0.0 warmup_obs
o25657 0.0 0.0 warmup_obs
o25658 0.0 0.0 warmup_obs
o25659 0.0 0.0 warmup_obs
o25660 0.0 0.0 warmup_obs
o25661 0.0 0.0 warmup_obs
o25662 0.0 0.0 warmup_obs
o25663 0.0 0.0 warmup_obs
o25664 0.0 0.0 warmup_obs
o25665 0.0 0.0 warmup_obs
o25666 0.0 0.0 warmup_obs
o25667 0.0 0.0 warmup_obs
o25668 0.0 0.0 warmup_obs
o25669 0.0 0.0 warmup_obs
o25670 0.0 0.0 warmup_obs
o25671 0.0 0.0 warmup_obs
o25672 0.0 0.0 warmup_obs
o25673 0.0 0.0 warmup_obs
o25674 0.0 0.0 warmup_obs
o25675 0.0 0.0 warmup_obs
o25676 0.0 0.0 warmup_obs
o25677 0.0 0.0 warmup_obs
o25678 0.0 0.0 warmup_obs
o25679 0.0 0.0 warmup_obs
o25680 0.0 0.0 warmup_obs
o25681 0.0 0.0 warmup_obs
o25682 0.0 0.0 warmup_obs
o25683 0.0 0.0 warmup_obs
o25684 0.0 0.0 warmup_obs
o25685 0.0 0.0 warmup_obs
o25686 0.0 0.0 warmup_obs
o25687 0.0 0.0 warmup_obs
o25688 0.0 0.0 warmup_obs
o25689 0.0 0.0 warmup_obs
o25690 0.0 0.0 warmup_obs
o25691 0.0 0.0 warmup_obs
o25692 0.0 0.0 warmup_obs
o25693 0.0 0.0 warmup_obs
o25694 0.0 0.0 warmup_obs
o25695 0.0 0.0 warmup_obs
o25696 0.0 0.0 warmup_obs
o25697 0.0 0.0 warmup_obs
o25698 0.0 0.0 warmup_obs
o25699 0.0 0.0 warmup_obs
o25700 0.0 0.0 warmup_obs
o25701 0.0 0.0 warmup_obs
o25702 0.0 0.0 warmup_obs
o25703 0.0 0.0 warmup_obs
o25704 0.0 0.0 warmup_obs
o25705 0.0 0.0 warmup_obs
o25706 0.0 0.0 warmup_obs
o25707 0.0 0.0 warmup_obs
o25708 0.0 0.0 warmup_obs
o25709 0.0 0.0 warmup_obs
o25710 0.0 0.0 warmup_obs
o25711 0.0 0.0 warmup_obs
o25712 0.0 0.0 warmup_obs
o25713 0.0 0.0 warmup_obs
o25714 0.0 0.0 warmup_obs
o25715 0.0 0.0 warmup_obs
o25716 0.0 0.0 warmup_obs
o25717 0.0 0.0 warmup_obs
o25718 0.0 0.0 warmup_obs
o25719 0.0 0.0 warmup_obs
o25720 0.0 0.0 warmup_obs
o25721 0.0 0.0 warmup_obs
o25722 0.0 0.0 warmup_obs
o25723 0.0 0.0 warmup_obs
o25724 0.0 0.0 warmup_obs
o25725 0.0 0.0 warmup_obs
o25726 0.0 0.0 warmup_obs
o25727 0.0 0.0 warmup_obs
o25728 0.0 0.0 warmup_obs
o25729 0.0 0.0 warmup_obs
o25730 0.0 0.0 warmup_obs
o25731 0.0 0.0 warmup_obs
o25732 0.0 0.0 warmup_obs
o25733 0.0 0.0 warmup_obs
o25734 0.0 0.0 warmup_obs
o25735 0.0 0.0 warmup_obs
o25736 0.0 0.0 warmup_obs
o25737 0.0 0.0 warmup_obs
o25738 0.0 0.0 warmup_obs
o25739 0.0 0.0 warmup_obs
o25740 0.0 0.0 warmup_obs
o25741 0.0 0.0 warmup_obs
o25742 0.0 0.0 warmup_obs
o25743 0.0 0.0 warmup_obs
o25744 0.0 0.0 warmup_obs
o25745 0.0 0.0 warmup_obs
o25746 0.0 0.0 warmup_obs
o25747 0.0 0.0 warmup_obs
o25748 0.0 0.0 warmup_obs
o25749 0.0 0.0 warmup_obs
o25750 0.0 0.0 warmup_obs
o25751 0.0 0.0 warmup_obs
o25752 0.0 0.0 warmup_obs
o25753 0.0 0.0 warmup_obs
o25754 0.0 0.0 warmup_obs
o25755 0.0 0.0 warmup_obs
o25756 0.0 0.0 warmup_obs
o25757 0.0 0.0 warmup_obs
o25758 0.0 0.0 warmup_obs
o25759 0.0 0.0 warmup_obs
o25760 0.0 0.0 warmup_obs
o25761 0.0 0.0 warmup_obs
o25762 0.0 0.0 warmup_obs
o25763 0.0 0.0 warmup_obs
o25764 0.0 0.0 warmup_obs
o25765 0.0 0.0 warmup_obs
o25766 0.0 0.0 warmup_obs
o25767 0.0 0.0 warmup_obs
o25768 0.0 0.0 warmup_obs
o25769 0.0 0.0 warmup_obs
o25770 0.0 0.0 warmup_obs
o25771 0.0 0.0 warmup_obs
o25772 0.0 0.0 warmup_obs
o25773 0.0 0.0 warmup_obs
o25774 0.0 0.0 warmup_obs
o25775 0.0 0.0 warmup_obs
o25776 0.0 0.0 warmup_obs
o25777 0.0 0.0 warmup_obs
o25778 0.0 0.0 warmup_obs
o25779 0.0 0.0 warmup_obs
o25780 0.0 0.0 warmup_obs
o25781 0.0 0.0 warmup_obs
o25782 0.0 0.0 warmup_obs
o25783 0.0 0.0 warmup_obs
o25784 0.0 0.0 warmup_obs
o25785 0.0 0.0 warmup_obs
o25786 0.0 0.0 warmup_obs
o25787 0.0 0.0 warmup_obs
o25788 0.0 0.0 warmup_obs
o25789 0.0 0.0 warmup_obs
o25790 0.0 0.0 warmup_obs
o25791 0.0 0.0 warmup_obs
o25792 0.0 0.0 warmup_obs
o25793 0.0 0.0 warmup_obs
o25794 0.0 0.0 warmup_obs
o25795 0.0 0.0 warmup_obs
o25796 0.0 0.0 warmup_obs
o25797 0.0 0.0 warmup_obs
o25798 0.0 0.0 warmup_obs
o25799 0.0 0.0 warmup_obs
o25800 0.0 0.0 warmup_obs
o25801 0.0 0.0 warmup_obs
o25802 0.0 0.0 warmup_obs
o25803 0.0 0.0 warmup_obs
o25804 0.0 0.0 warmup_obs
o25805 0.0 0.0 warmup_obs
o25806 0.0 0.0 warmup_obs
o25807 0.0 0.0 warmup_obs
o25808 0.0 0.0 warmup_obs
o25809 0.0 0.0 warmup_obs
o25810 0.0 0.0 warmup_obs
o25811 0.0 0.0 warmup_obs
o25812 0.0 0.0 warmup_obs
o25813 0.0 0.0 warmup_obs
o25814 0.0 0.0 warmup_obs
o25815 0.0 0.0 warmup_obs
o25816 0.0 0.0 warmup_obs
o25817 0.0 0.0 warmup_obs
o25818 0.0 0.0 warmup_obs
o25819 0.0 0.0 warmup_obs
o25820 0.0 0.0 warmup_obs
o25821 0.0 0.0 warmup_obs
o25822 0.0 0.0 warmup_obs
o25823 0.0 0.0 warmup_obs
o25824 0.0 0.0 warmup_obs
o25825 0.0 0.0 warmup_obs
o25826 0.0 0.0 warmup_obs
o25827 0.0 0.0 warmup_obs
o25828 0.0 0.0 warmup_obs
o25829 0.0 0.0 warmup_obs
o25830 0.0 0.0 warmup_obs
o25831 0.0 0.0 warmup_obs
o25832 0.0 0.0 warmup_obs
o25833 0.0 0.0 warmup_obs
o25834 0.0 0.0 warmup_obs
o25835 0.0 0.0 warmup_obs
o25836 0.0 0.0 warmup_obs
o25837 0.0 0.0 warmup_obs
o25838 0.0 0.0 warmup_obs
o25839 0.0 0.0 warmup_obs
o25840 0.0 0.0 warmup_obs
o25841 0.0 0.0 warmup_obs
o25842 0.0 0.0 warmup_obs
o25843 0.0 0.0 warmup_obs
o25844 0.0 0.0 warmup_obs
o25845 0.0 0.0 warmup_obs
o25846 0.0 0.0 warmup_obs
o25847 0.0 0.0 warmup_obs
o25848 0.0 0.0 warmup_obs
o25849 0.0 0.0 warmup_obs
o25850 0.0 0.0 warmup_obs
o25851 0.0 0.0 warmup_obs
o25852 0.0 0.0 warmup_obs
o25853 0.0 0.0 warmup_obs
o25854 0.0 0.0 warmup_obs
o25855 0.0 0.0 warmup_obs
o25856 0.0 0.0 warmup_obs
o25857 0.0 0.0 warmup_obs
o25858 0.0 0.0 warmup_obs
o25859 0.0 0.0 warmup_obs
o25860 0.0 0.0 warmup_obs
o25861 0.0 0.0 warmup_obs
o25862 0.0 0.0 warmup_obs
o25863 0.0 0.0 warmup_obs
o25864 0.0 0.0 warmup_obs
o25865 0.0 0.0 warmup_obs
o25866 0.0 0.0 warmup_obs
o25867 0.0 0.0 warmup_obs
o25868 0.0 0.0 warmup_obs
o25869 0.0 0.0 warmup_obs
o25870 0.0 0.0 warmup_obs
o25871 0.0 0.0 warmup_obs
o25872 0.0 0.0 warmup_obs
o25873 0.0 0.0 warmup_obs
o25874 0.0 0.0 warmup_obs
o25875 0.0 0.0 warmup_obs
o25876 0.0 0.0 warmup_obs
o25877 0.0 0.0 warmup_obs
o25878 0.0 0.0 warmup_obs
o25879 0.0 0.0 warmup_obs
o25880 0.0 0.0 warmup_obs
o25881 0.0 0.0 warmup_obs
o25882 0.0 0.0 warmup_obs
o25883 0.0 0.0 warmup_obs
o25884 0.0 0.0 warmup_obs
o25885 0.0 0.0 warmup_obs
o25886 0.0 0.0 warmup_obs
o25887 0.0 0.0 warmup_obs
o25888 0.0 0.0 warmup_obs
o25889 0.0 0.0 warmup_obs
o25890 0.0 0.0 warmup_obs
o25891 0.0 0.0 warmup_obs
o25892 0.0 0.0 warmup_obs
o25893 0.0 0.0 warmup_obs
o25894 0.0 0.0 warmup_obs
o25895 0.0 0.0 warmup_obs
o25896 0.0 0.0 warmup_obs
o25897 0.0 0.0 warmup_obs
o25898 0.0 0.0 warmup_obs
o25899 0.0 0.0 warmup_obs
o25900 0.0 0.0 warmup_obs
o25901 0.0 0.0 warmup_obs
o25902 0.0 0.0 warmup_obs
o25903 0.0 0.0 warmup_obs
o25904 0.0 0.0 warmup_obs
o25905 0.0 0.0 warmup_obs
o25906 0.0 0.0 warmup_obs
o25907 0.0 0.0 warmup_obs
o25908 0.0 0.0 warmup_obs
o25909 0.0 0.0 warmup_obs
o25910 0.0 0.0 warmup_obs
o25911 0.0 0.0 warmup_obs
o25912 0.0 0.0 warmup_obs
o25913 0.0 0.0 warmup_obs
o25914 0.0 0.0 warmup_obs
o25915 0.0 0.0 warmup_obs
o25916 0.0 0.0 warmup_obs
o25917 0.0 0.0 warmup_obs
o25918 0.0 0.0 warmup_obs
o25919 0.0 0.0 warmup_obs
o25920 0.0 0.0 warmup_obs
o25921 0.0 0.0 warmup_obs
o25922 0.0 0.0 warmup_obs
o25923 0.0 0.0 warmup_obs
o25924 0.0 0.0 warmup_obs
o25925 0.0 0.0 warmup_obs
o25926 0.0 0.0 warmup_obs
o25927 0.0 0.0 warmup_obs
o25928 0.0 0.0 warmup_obs
o25929 0.0 0.0 warmup_obs
o25930 0.0 0.0 warmup_obs
o25931 0.0 0.0 warmup_obs
o25932 0.0 0.0 warmup_obs
o25933 0.0 0.0 warmup_obs
o25934 0.0 0.0 warmup_obs
o25935 0.0 0.0 warmup_obs
o25936 0.0 0.0 warmup_obs
o25937 0.0 0.0 warmup_obs
o25938 2.6 0.269375 calib_obs
o25939 2.3 0.269375 calib_obs
o25940 1.95 0.269375 calib_obs
o25941 1.95 0.269375 calib_obs
o25942 1.95 0.269375 calib_obs
o25943 1.72 0.269375 calib_obs
o25944 1.61 0.269375 calib_obs
o25945 1.61 0.269375 calib_obs
o25946 1.72 0.269375 calib_obs
o25947 1.95 0.269375 calib_obs
o25948 1.95 0.269375 calib_obs
o25949 1.83 0.269375 calib_obs
o25950 1.83 0.269375 calib_obs
o25951 1.83 0.269375 calib_obs
o25952 1.83 0.269375 calib_obs
o25953 1.72 0.269375 calib_obs
o25954 1.61 0.269375 calib_obs
o25955 1.49 0.269375 calib_obs
o25956 1.49 0.269375 calib_obs
o25957 1.49 0.269375 calib_obs
o25958 1.38 0.269375 calib_obs
o25959 1.38 0.269375 calib_obs
o25960 1.38 0.269375 calib_obs
o25961 1.26 0.269375 calib_obs
o25962 1.26 0.269375 calib_obs
o25963 1.26 0.269375 calib_obs
o25964 1.26 0.269375 calib_obs
o25965 1.26 0.269375 calib_obs
o25966 1.26 0.269375 calib_obs
o25967 1.38 0.269375 calib_obs
o25968 1.38 0.269375 calib_obs
o25969 1.38 0.269375 calib_obs
o25970 1.38 0.269375 calib_obs
o25971 1.26 0.269375 calib_obs
o25972 1.26 0.269375 calib_obs
o25973 1.26 0.269375 calib_obs
o25974 1.26 0.269375 calib_obs
o25975 1.26 0.269375 calib_obs
o25976 1.04 0.269375 calib_obs
o25977 1.04 0.269375 calib_obs
o25978 0.92 0.269375 calib_obs
o25979 0.81 0.269375 calib_obs
o25980 0.7 0.269375 calib_obs
o25981 0.7 0.269375 calib_obs
o25982 0.81 0.269375 calib_obs
o25983 0.81 0.269375 calib_obs
o25984 0.81 0.269375 calib_obs
o25985 0.81 0.269375 calib_obs
o25986 0.92 0.269375 calib_obs
o25987 1.26 0.269375 calib_obs
o25988 2.5 0.269375 calib_obs
o25989 1.72 0.269375 calib_obs
o25990 1.38 0.269375 calib_obs
o25991 1.26 0.269375 calib_obs
o25992 1.26 0.269375 calib_obs
o25993 1.15 0.269375 calib_obs
o25994 1.15 0.269375 calib_obs
o25995 1.15 0.269375 calib_obs
o25996 1.04 0.269375 calib_obs
o25997 1.83 0.269375 calib_obs
o25998 4.5 0.269375 calib_obs
o25999 5.2 0.269375 calib_obs
o26000 3.5 0.269375 calib_obs
o26001 2.5 0.269375 calib_obs
o26002 2.3 0.269375 calib_obs
o26003 1.95 0.269375 calib_obs
o26004 1.72 0.269375 calib_obs
o26005 1.61 0.269375 calib_obs
o26006 1.61 0.269375 calib_obs
o26007 1.61 0.269375 calib_obs
o26008 1.72 0.269375 calib_obs
o26009 1.72 0.269375 calib_obs
o26010 1.95 0.269375 calib_obs
o26011 3.8 0.269375 calib_obs
o26012 6.5 0.269375 calib_obs
o26013 6.5 0.269375 calib_obs
o26014 6.5 0.269375 calib_obs
o26015 5.2 0.269375 calib_obs
o26016 5.2 0.269375 calib_obs
o26017 5.6 0.269375 calib_obs
o26018 10.0 0.269375 calib_obs
o26019 10.6 0.269375 calib_obs
o26020 7.2 0.269375 calib_obs
o26021 5.2 0.269375 calib_obs
o26022 4.9 0.269375 calib_obs
o26023 6.8 0.269375 calib_obs
o26024 7.9 0.269375 calib_obs
o26025 5.4 0.269375 calib_obs
o26026 4.7 0.269375 calib_obs
o26027 4.0 0.269375 calib_obs
o26028 3.7 0.269375 calib_obs
o26029 4.5 0.269375 calib_obs
o26030 5.4 0.269375 calib_obs
o26031 5.6 0.269375 calib_obs
o26032 6.5 0.269375 calib_obs
o26033 6.3 0.269375 calib_obs
o26034 5.6 0.269375 calib_obs
o26035 6.8 0.269375 calib_obs
o26036 5.6 0.269375 calib_obs
o26037 5.4 0.269375 calib_obs
o26038 6.3 0.269375 calib_obs
o26039 5.2 0.269375 calib_obs
o26040 4.5 0.269375 calib_obs
o26041 3.8 0.269375 calib_obs
o26042 3.3 0.269375 calib_obs
o26043 3.0 0.269375 calib_obs
o26044 2.8 0.269375 calib_obs
o26045 2.7 0.269375 calib_obs
o26046 2.5 0.269375 calib_obs
o26047 2.5 0.269375 calib_obs
o26048 2.8 0.269375 calib_obs
o26049 3.83 0.269375 calib_obs
o26050 3.34 0.269375 calib_obs
o26051 2.97 0.269375 calib_obs
o26052 2.78 0.269375 calib_obs
o26053 3.13 0.269375 calib_obs
o26054 3.0 0.269375 calib_obs
o26055 2.73 0.269375 calib_obs
o26056 2.61 0.269375 calib_obs
o26057 3.92 0.269375 calib_obs
o26058 6.3 0.269375 calib_obs
o26059 4.31 0.269375 calib_obs
o26060 3.37 0.269375 calib_obs
o26061 2.85 0.269375 calib_obs
o26062 2.63 0.269375 calib_obs
o26063 2.51 0.269375 calib_obs
o26064 2.39 0.269375 calib_obs
o26065 2.28 0.269375 calib_obs
o26066 2.17 0.269375 calib_obs
o26067 2.09 0.269375 calib_obs
o26068 2.01 0.269375 calib_obs
o26069 1.91 0.269375 calib_obs
o26070 1.81 0.269375 calib_obs
o26071 1.73 0.269375 calib_obs
o26072 1.67 0.269375 calib_obs
o26073 1.56 0.269375 calib_obs
o26074 1.48 0.269375 calib_obs
o26075 1.44 0.269375 calib_obs
o26076 1.42 0.269375 calib_obs
o26077 1.36 0.269375 calib_obs
o26078 1.25 0.269375 calib_obs
o26079 1.19 0.269375 calib_obs
o26080 1.12 0.269375 calib_obs
o26081 1.06 0.269375 calib_obs
o26082 1.0 0.269375 calib_obs
o26083 0.93 0.269375 calib_obs
o26084 0.85 0.269375 calib_obs
o26085 0.81 0.269375 calib_obs
o26086 0.8 0.269375 calib_obs
o26087 0.72 0.269375 calib_obs
o26088 0.79 0.269375 calib_obs
o26089 0.83 0.269375 calib_obs
o26090 0.8 0.269375 calib_obs
o26091 0.72 0.269375 calib_obs
o26092 0.6 0.269375 calib_obs
o26093 0.58 0.269375 calib_obs
o26094 0.58 0.269375 calib_obs
o26095 0.55 0.269375 calib_obs
o26096 0.53 0.269375 calib_obs
o26097 0.88 0.269375 calib_obs
o26098 1.03 0.269375 calib_obs
o26099 0.95 0.269375 calib_obs
o26100 0.87 0.269375 calib_obs
o26101 1.82 0.269375 calib_obs
o26102 2.42 0.269375 calib_obs
o26103 1.75 0.269375 calib_obs
o26104 1.24 0.269375 calib_obs
o26105 1.01 0.269375 calib_obs
o26106 0.83 0.269375 calib_obs
o26107 0.72 0.269375 calib_obs
o26108 0.68 0.269375 calib_obs
o26109 0.79 0.269375 calib_obs
o26110 0.76 0.269375 calib_obs
o26111 0.76 0.269375 calib_obs
o26112 0.69 0.269375 calib_obs
o26113 0.72 0.269375 calib_obs
o26114 0.77 0.269375 calib_obs
o26115 0.94 0.269375 calib_obs
o26116 1.12 0.269375 calib_obs
o26117 1.01 0.269375 calib_obs
o26118 0.76 0.269375 calib_obs
o26119 0.56 0.269375 calib_obs
o26120 0.45 0.269375 calib_obs
o26121 0.42 0.269375 calib_obs
o26122 0.41 0.269375 calib_obs
o26123 0.4 0.269375 calib_obs
o26124 0.39 0.269375 calib_obs
o26125 0.38 0.269375 calib_obs
o26126 0.35 0.269375 calib_obs
o26127 0.34 0.269375 calib_obs
o26128 0.31 0.269375 calib_obs
o26129 0.3 0.269375 calib_obs
o26130 0.34 0.269375 calib_obs
o26131 0.36 0.269375 calib_obs
o26132 0.39 0.269375 calib_obs
o26133 0.38 0.269375 calib_obs
o26134 0.34 0.269375 calib_obs
o26135 0.31 0.269375 calib_obs
o26136 0.33 0.269375 calib_obs
o26137 0.31 0.269375 calib_obs
o26138 0.3 0.269375 calib_obs
o26139 0.29 0.269375 calib_obs
o26140 0.28 0.269375 calib_obs
o26141 0.27 0.269375 calib_obs
o26142 0.26 0.269375 calib_obs
o26143 0.26 0.269375 calib_obs
o26144 0.25 0.269375 calib_obs
o26145 0.24 0.269375 calib_obs
o26146 0.22 0.269375 calib_obs
o26147 0.2 0.269375 calib_obs
o26148 0.2 0.269375 calib_obs
o26149 0.19 0.269375 calib_obs
o26150 0.18 0.269375 calib_obs
o26151 0.25 0.269375 calib_obs
o26152 0.4 0.269375 calib_obs
o26153 0.72 0.269375 calib_obs
o26154 1.35 0.269375 calib_obs
o26155 1.53 0.269375 calib_obs
o26156 1.45 0.269375 calib_obs
o26157 1.54 0.269375 calib_obs
o26158 1.23 0.269375 calib_obs
o26159 0.92 0.269375 calib_obs
o26160 0.66 0.269375 calib_obs
o26161 0.57 0.269375 calib_obs
o26162 1.56 0.269375 calib_obs
o26163 1.46 0.269375 calib_obs
o26164 1.07 0.269375 calib_obs
o26165 0.78 0.269375 calib_obs
o26166 0.6 0.269375 calib_obs
o26167 0.5 0.269375 calib_obs
o26168 0.46 0.269375 calib_obs
o26169 0.47 0.269375 calib_obs
o26170 0.47 0.269375 calib_obs
o26171 0.52 0.269375 calib_obs
o26172 0.49 0.269375 calib_obs
o26173 0.45 0.269375 calib_obs
o26174 0.41 0.269375 calib_obs
o26175 0.4 0.269375 calib_obs
o26176 0.39 0.269375 calib_obs
o26177 0.4 0.269375 calib_obs
o26178 0.38 0.269375 calib_obs
o26179 0.38 0.269375 calib_obs
o26180 0.39 0.269375 calib_obs
o26181 0.39 0.269375 calib_obs
o26182 0.41 0.269375 calib_obs
o26183 0.39 0.269375 calib_obs
o26184 0.33 0.269375 calib_obs
o26185 0.31 0.269375 calib_obs
o26186 0.3 0.269375 calib_obs
o26187 0.3 0.269375 calib_obs
o26188 0.3 0.269375 calib_obs
o26189 0.4 0.269375 calib_obs
o26190 1.06 0.269375 calib_obs
o26191 1.51 0.269375 calib_obs
o26192 2.77 0.269375 calib_obs
o26193 3.73 0.269375 calib_obs
o26194 2.59 0.269375 calib_obs
o26195 4.39 0.269375 calib_obs
o26196 4.09 0.269375 calib_obs
o26197 3.16 0.269375 calib_obs
o26198 2.46 0.269375 calib_obs
o26199 2.06 0.269375 calib_obs
o26200 0.0 0.0 calib_obs
o26201 0.0 0.0 calib_obs
o26202 0.0 0.0 calib_obs
o26203 0.0 0.0 calib_obs
o26204 0.0 0.0 calib_obs
o26205 0.0 0.0 calib_obs
o26206 0.0 0.0 calib_obs
o26207 0.0 0.0 calib_obs
o26208 1.95 0.269375 calib_obs
o26209 1.95 0.269375 calib_obs
o26210 1.95 0.269375 calib_obs
o26211 1.83 0.269375 calib_obs
o26212 1.83 0.269375 calib_obs
o26213 1.95 0.269375 calib_obs
o26214 4.3 0.269375 calib_obs
o26215 7.9 0.269375 calib_obs
o26216 5.6 0.269375 calib_obs
o26217 4.7 0.269375 calib_obs
o26218 4.7 0.269375 calib_obs
o26219 12.7 0.269375 calib_obs
o26220 18.6 0.269375 calib_obs
o26221 28.0 0.269375 calib_obs
o26222 24.0 0.269375 calib_obs
o26223 20.0 0.269375 calib_obs
o26224 16.5 0.269375 calib_obs
o26225 12.7 0.269375 calib_obs
o26226 10.3 0.269375 calib_obs
o26227 8.9 0.269375 calib_obs
o26228 8.6 0.269375 calib_obs
o26229 8.2 0.269375 calib_obs
o26230 6.3 0.269375 calib_obs
o26231 5.2 0.269375 calib_obs
o26232 4.9 0.269375 calib_obs
o26233 4.3 0.269375 calib_obs
o26234 3.8 0.269375 calib_obs
o26235 3.5 0.269375 calib_obs
o26236 3.3 0.269375 calib_obs
o26237 3.2 0.269375 calib_obs
o26238 3.8 0.269375 calib_obs
o26239 17.2 0.269375 calib_obs
o26240 17.5 0.269375 calib_obs
o26241 12.0 0.269375 calib_obs
o26242 8.2 0.269375 calib_obs
o26243 6.0 0.269375 calib_obs
o26244 4.9 0.269375 calib_obs
o26245 4.5 0.269375 calib_obs
o26246 4.7 0.269375 calib_obs
o26247 5.2 0.269375 calib_obs
o26248 5.4 0.269375 calib_obs
o26249 4.5 0.269375 calib_obs
o26250 4.0 0.269375 calib_obs
o26251 5.6 0.269375 calib_obs
o26252 8.9 0.269375 calib_obs
o26253 18.9 0.269375 calib_obs
o26254 16.9 0.269375 calib_obs
o26255 11.3 0.269375 calib_obs
o26256 7.9 0.269375 calib_obs
o26257 7.2 0.269375 calib_obs
o26258 7.5 0.269375 calib_obs
o26259 8.2 0.269375 calib_obs
o26260 12.7 0.269375 calib_obs
o26261 14.1 0.269375 calib_obs
o26262 11.3 0.269375 calib_obs
o26263 9.3 0.269375 calib_obs
o26264 7.5 0.269375 calib_obs
o26265 11.0 0.269375 calib_obs
o26266 20.0 0.269375 calib_obs
o26267 18.2 0.269375 calib_obs
o26268 17.2 0.269375 calib_obs
o26269 16.5 0.269375 calib_obs
o26270 14.8 0.269375 calib_obs
o26271 14.1 0.269375 calib_obs
o26272 13.4 0.269375 calib_obs
o26273 11.7 0.269375 calib_obs
o26274 14.1 0.269375 calib_obs
o26275 19.6 0.269375 calib_obs
o26276 14.4 0.269375 calib_obs
o26277 10.6 0.269375 calib_obs
o26278 8.6 0.269375 calib_obs
o26279 11.7 0.269375 calib_obs
o26280 16.2 0.269375 calib_obs
o26281 13.4 0.269375 calib_obs
o26282 10.0 0.269375 calib_obs
o26283 7.9 0.269375 calib_obs
o26284 11.0 0.269375 calib_obs
o26285 10.6 0.269375 calib_obs