pcf
* control data
restart estimation
146 21918 2 0 3
1 6 double point 1 0 0
10.0 5.0 0.5 0.005 20
5.0 5.0 0.005 0
0.01
50 0.01 8 8 0.01 8
1 1 1
* parameter groups
paramGroup1 relative 0.01 0.001 switch 2.0 parabolic
paramGroup2 absolute 0.05 0.001 switch 2.0 parabolic
* parameter data
ttpi none relative 1.0 0.0 2.0 paramGroup1 1.0000 0.0000 1
lp none relative 0.9 0.8 1.0 paramGroup1 1.0000 0.0000 1
cevpam fixed relative 0.5 0.5 0.5 paramGroup1 1.0000 0.0000 1
cevpph fixed relative 45 45 45 paramGroup1 1.0000 0.0000 1
rrcs3 fixed relative 0.0002 0.0002 0.0002 paramGroup1 1.0000 0.0000 1
damp none relative 0.255 0.01 0.95 paramGroup1 1.0000 0.0000 1
rivvel none relative 0.75 0.3 1 paramGroup1 1.0000 0.0000 1
tcalt fixed relative 0.6 0.6 0.6 paramGroup1 1.0000 0.0000 1
qmean fixed relative 25 25 25 paramGroup1 1.0000 0.0000 1
epotdist fixed relative 3 3 3 paramGroup1 1.0000 0.0000 1
gldepi none relative 3.0 1.0 10.0 paramGroup1 1.0000 0.0000 1
gratp none relative 2.25 2 2.5 paramGroup1 1.0000 0.0000 1
gratk none relative 1.0 0.05 2.0 paramGroup1 1.0000 0.0000 1
sdnsnew fixed relative 0.145 0.1 0.19 paramGroup1 1.0000 0.0000 1
snowdensdt fixed relative 0.0014 0.0014 0.0014 paramGroup1 1.0000 0.0000 1
ttmp_10 fixed relative 1.0 0.0 2.0 paramGroup1 1.0000 0.0000 1
ttmp_11 none relative 1.0 0.0 2.0 paramGroup1 1.0000 0.0000 1
ttmp_12 fixed relative 1.0 0.0 2.0 paramGroup1 1.0000 0.0000 1
ttmp_13 none relative 1.0 0.0 2.0 paramGroup1 1.0000 0.0000 1
ttmp_14 none relative 1.0 -1.0 2.0 paramGroup2 1.0000 0.0000 1
ttmp_15 none relative 1.0 0.0 2.0 paramGroup1 1.0000 0.0000 1
ttmp_16 none relative 1.0 0.0 2.0 paramGroup1 1.0000 0.0000 1
ttmp_17 none relative 1.0 -2.0 2.0 paramGroup2 1.0000 0.0000 1
cmlt_10 fixed relative 2.6 0.2 5.0 paramGroup1 1.0000 0.0000 1
cmlt_11 none relative 2.6 0.2 8.0 paramGroup1 1.0000 0.0000 1
cmlt_12 fixed relative 2.6 0.2 5.0 paramGroup1 1.0000 0.0000 1
cmlt_13 none relative 2.6 0.2 5.0 paramGroup1 1.0000 0.0000 1
cmlt_14 none relative 2.6 0.2 5.0 paramGroup1 1.0000 0.0000 1
cmlt_15 none relative 2.6 0.2 5.0 paramGroup1 1.0000 0.0000 1
cmlt_16 none relative 2.6 0.2 5.0 paramGroup1 1.0000 0.0000 1
cmlt_17 none relative 2.6 0.2 8.0 paramGroup1 1.0000 0.0000 1
cevp_10 fixed relative 0.15 0.1 0.2 paramGroup1 1.0000 0.0000 1
cevp_11 none relative 0.15 0.1 0.2 paramGroup1 1.0000 0.0000 1
cevp_12 fixed relative 0.15 0.1 0.2 paramGroup1 1.0000 0.0000 1
cevp_13 none relative 0.15 0.1 0.2 paramGroup1 1.0000 0.0000 1
cevp_14 none relative 0.15 0.1 0.2 paramGroup1 1.0000 0.0000 1
cevp_15 none relative 0.15 0.1 0.2 paramGroup1 1.0000 0.0000 1
cevp_16 none relative 0.15 0.1 0.2 paramGroup1 1.0000 0.0000 1
cevp_17 none relative 0.15 0.1 0.2 paramGroup1 1.0000 0.0000 1
srrcs_10 fixed relative 0.15 0.1 0.2 paramGroup1 1.0000 0.0000 1
srrcs_11 none relative 0.15 0.1 0.2 paramGroup1 1.0000 0.0000 1
srrcs_12 fixed relative 0.15 0.1 0.2 paramGroup1 1.0000 0.0000 1
srrcs_13 none relative 0.15 0.1 0.2 paramGroup1 1.0000 0.0000 1
srrcs_14 none relative 0.15 0.1 0.2 paramGroup1 1.0000 0.0000 1
srrcs_15 none relative 0.15 0.1 0.2 paramGroup1 1.0000 0.0000 1
srrcs_16 none relative 0.15 0.1 0.2 paramGroup1 1.0000 0.0000 1
srrcs_17 none relative 0.15 0.1 0.2 paramGroup1 1.0000 0.0000 1
frost_10 fixed relative 2.0 2.0 2.0 paramGroup1 1.0000 0.0000 1
frost_11 fixed relative 2.0 2.0 2.0 paramGroup1 1.0000 0.0000 1
frost_12 fixed relative 2.0 2.0 2.0 paramGroup1 1.0000 0.0000 1
frost_13 fixed relative 2.0 2.0 2.0 paramGroup1 1.0000 0.0000 1
frost_14 fixed relative 2.0 2.0 2.0 paramGroup1 1.0000 0.0000 1
frost_15 fixed relative 2.0 2.0 2.0 paramGroup1 1.0000 0.0000 1
frost_16 fixed relative 2.0 2.0 2.0 paramGroup1 1.0000 0.0000 1
frost_17 fixed relative 2.0 2.0 2.0 paramGroup1 1.0000 0.0000 1
rrcs1_100 fixed relative 0.375 0.05 0.7 paramGroup1 1.0000 0.0000 1
rrcs1_101 none relative 0.375 0.05 0.7 paramGroup1 1.0000 0.0000 1
rrcs1_102 none relative 0.375 0.05 0.7 paramGroup1 1.0000 0.0000 1
rrcs1_103 none relative 0.375 0.05 0.7 paramGroup1 1.0000 0.0000 1
rrcs1_104 none relative 0.375 0.05 0.7 paramGroup1 1.0000 0.0000 1
rrcs1_105 none relative 0.375 0.05 1.0 paramGroup1 1.0000 0.0000 1
rrcs1_106 none relative 0.375 0.05 0.7 paramGroup1 1.0000 0.0000 1
rrcs2_100 fixed relative 0.0255 0.001 0.05 paramGroup1 1.0000 0.0000 1
rrcs2_101 none relative 0.0255 0.001 0.05 paramGroup1 1.0000 0.0000 1
rrcs2_102 none relative 0.0255 0.001 0.05 paramGroup1 1.0000 0.0000 1
rrcs2_103 none relative 0.0255 0.001 0.05 paramGroup1 1.0000 0.0000 1
rrcs2_104 none relative 0.0255 0.001 0.05 paramGroup1 1.0000 0.0000 1
rrcs2_105 none relative 0.0255 0.001 0.05 paramGroup1 1.0000 0.0000 1
rrcs2_106 none relative 0.0255 0.001 0.05 paramGroup1 1.0000 0.0000 1
trrcs_100 fixed relative 0.2 0.1 0.3 paramGroup1 1.0000 0.0000 1
trrcs_101 fixed relative 0.2 0.1 0.3 paramGroup1 1.0000 0.0000 1
trrcs_102 fixed relative 0.2 0.1 0.3 paramGroup1 1.0000 0.0000 1
trrcs_103 fixed relative 0.2 0.1 0.3 paramGroup1 1.0000 0.0000 1
trrcs_104 fixed relative 0.2 0.1 0.3 paramGroup1 1.0000 0.0000 1
trrcs_105 fixed relative 0.2 0.1 0.3 paramGroup1 1.0000 0.0000 1
trrcs_106 fixed relative 0.2 0.1 0.3 paramGroup1 1.0000 0.0000 1
mperc1_100 fixed relative 65 30 100 paramGroup1 1.0000 0.0000 1
mperc1_101 fixed relative 65 30 100 paramGroup1 1.0000 0.0000 1
mperc1_102 fixed relative 65 30 100 paramGroup1 1.0000 0.0000 1
mperc1_103 fixed relative 65 30 100 paramGroup1 1.0000 0.0000 1
mperc1_104 fixed relative 65 30 100 paramGroup1 1.0000 0.0000 1
mperc1_105 fixed relative 65 30 100 paramGroup1 1.0000 0.0000 1
mperc1_106 fixed relative 65 30 100 paramGroup1 1.0000 0.0000 1
mperc2_100 fixed relative 65 30 100 paramGroup1 1.0000 0.0000 1
mperc2_101 fixed relative 65 30 100 paramGroup1 1.0000 0.0000 1
mperc2_102 fixed relative 65 30 100 paramGroup1 1.0000 0.0000 1
mperc2_103 fixed relative 65 30 100 paramGroup1 1.0000 0.0000 1
mperc2_104 fixed relative 65 30 100 paramGroup1 1.0000 0.0000 1
mperc2_105 fixed relative 65 30 100 paramGroup1 1.0000 0.0000 1
mperc2_106 fixed relative 65 30 100 paramGroup1 1.0000 0.0000 1
sfrost_100 fixed relative 1.0 1.0 1.0 paramGroup1 1.0000 0.0000 1
sfrost_101 fixed relative 1.0 1.0 1.0 paramGroup1 1.0000 0.0000 1
sfrost_102 fixed relative 1.0 1.0 1.0 paramGroup1 1.0000 0.0000 1
sfrost_103 fixed relative 1.0 1.0 1.0 paramGroup1 1.0000 0.0000 1
sfrost_104 fixed relative 1.0 1.0 1.0 paramGroup1 1.0000 0.0000 1
sfrost_105 fixed relative 1.0 1.0 1.0 paramGroup1 1.0000 0.0000 1
sfrost_106 fixed relative 1.0 1.0 1.0 paramGroup1 1.0000 0.0000 1
macrate_100 fixed relative 0.2 0.1 0.3 paramGroup1 1.0000 0.0000 1
macrate_101 none relative 0.2 0.1 0.3 paramGroup1 1.0000 0.0000 1
macrate_102 none relative 0.2 0.1 0.3 paramGroup1 1.0000 0.0000 1
macrate_103 none relative 0.2 0.1 0.3 paramGroup1 1.0000 0.0000 1
macrate_104 none relative 0.2 0.1 0.3 paramGroup1 1.0000 0.0000 1
macrate_105 none relative 0.2 0.1 0.3 paramGroup1 1.0000 0.0000 1
macrate_106 none relative 0.2 0.1 0.3 paramGroup1 1.0000 0.0000 1
mactrinf_100 fixed relative 30 10 50 paramGroup1 1.0000 0.0000 1
mactrinf_101 none relative 30 10 50 paramGroup1 1.0000 0.0000 1
mactrinf_102 none relative 30 10 50 paramGroup1 1.0000 0.0000 1
mactrinf_103 none relative 30 10 50 paramGroup1 1.0000 0.0000 1
mactrinf_104 none relative 30 10 50 paramGroup1 1.0000 0.0000 1
mactrinf_105 none relative 30 10 50 paramGroup1 1.0000 0.0000 1
mactrinf_106 none relative 30 10 50 paramGroup1 1.0000 0.0000 1
mactrsm_100 fixed relative 0.675 0.5 0.85 paramGroup1 1.0000 0.0000 1
mactrsm_101 fixed relative 0.675 0.5 0.85 paramGroup1 1.0000 0.0000 1
mactrsm_102 fixed relative 0.675 0.5 0.85 paramGroup1 1.0000 0.0000 1
mactrsm_103 fixed relative 0.675 0.5 0.85 paramGroup1 1.0000 0.0000 1
mactrsm_104 fixed relative 0.675 0.5 0.85 paramGroup1 1.0000 0.0000 1
mactrsm_105 fixed relative 0.675 0.5 0.85 paramGroup1 1.0000 0.0000 1
mactrsm_106 fixed relative 0.675 0.5 0.85 paramGroup1 1.0000 0.0000 1
srrate_100 fixed relative 0.15 0.1 0.2 paramGroup1 1.0000 0.0000 1
srrate_101 none relative 0.15 0.1 0.2 paramGroup1 1.0000 0.0000 1
srrate_102 none relative 0.15 0.1 0.2 paramGroup1 1.0000 0.0000 1
srrate_103 none relative 0.15 0.1 0.2 paramGroup1 1.0000 0.0000 1
srrate_104 none relative 0.15 0.1 0.2 paramGroup1 1.0000 0.0000 1
srrate_105 none relative 0.15 0.1 0.2 paramGroup1 1.0000 0.0000 1
srrate_106 none relative 0.15 0.1 0.2 paramGroup1 1.0000 0.0000 1
wcwp_100 fixed relative 0.07 0.04 0.1 paramGroup1 1.0000 0.0000 1
wcwp_101 none relative 0.07 0.04 0.1 paramGroup1 1.0000 0.0000 1
wcwp_102 none relative 0.07 0.04 0.1 paramGroup1 1.0000 0.0000 1
wcwp_103 none relative 0.07 0.04 0.1 paramGroup1 1.0000 0.0000 1
wcwp_104 none relative 0.07 0.04 0.1 paramGroup1 1.0000 0.0000 1
wcwp_105 none relative 0.07 0.04 0.1 paramGroup1 1.0000 0.0000 1
wcwp_106 none relative 0.07 0.04 0.1 paramGroup1 1.0000 0.0000 1
wcfc_100 fixed relative 0.25 0.1 0.4 paramGroup1 1.0000 0.0000 1
wcfc_101 none relative 0.25 0.1 0.4 paramGroup1 1.0000 0.0000 1
wcfc_102 none relative 0.25 0.1 0.5 paramGroup1 1.0000 0.0000 1
wcfc_103 none relative 0.25 0.1 0.4 paramGroup1 1.0000 0.0000 1
wcfc_104 none relative 0.25 0.1 0.4 paramGroup1 1.0000 0.0000 1
wcfc_105 none relative 0.25 0.1 0.4 paramGroup1 1.0000 0.0000 1
wcfc_106 none relative 0.25 0.1 0.4 paramGroup1 1.0000 0.0000 1
wcep_100 fixed relative 0.055 0.01 0.1 paramGroup1 1.0000 0.0000 1
wcep_101 none relative 0.055 0.01 0.1 paramGroup1 1.0000 0.0000 1
wcep_102 none relative 0.055 0.01 0.1 paramGroup1 1.0000 0.0000 1
wcep_103 none relative 0.055 0.01 0.1 paramGroup1 1.0000 0.0000 1
wcep_104 none relative 0.055 0.01 0.35 paramGroup1 1.0000 0.0000 1
wcep_105 none relative 0.055 0.01 0.35 paramGroup1 1.0000 0.0000 1
wcep_106 none relative 0.055 0.01 0.1 paramGroup1 1.0000 0.0000 1
* observation groups
warmup_obs
calib_obs
valid_obs
* observation data
o43837 0.0 0.0 warmup_obs
o43838 0.0 0.0 warmup_obs
o43839 0.0 0.0 warmup_obs
o43840 0.0 0.0 warmup_obs
o43841 0.0 0.0 warmup_obs
o43842 0.0 0.0 warmup_obs
o43843 0.0 0.0 warmup_obs
o43844 0.0 0.0 warmup_obs
o43845 0.0 0.0 warmup_obs
o43846 0.0 0.0 warmup_obs
o43847 0.0 0.0 warmup_obs
o43848 0.0 0.0 warmup_obs
o43849 0.0 0.0 warmup_obs
o43850 0.0 0.0 warmup_obs
o43851 0.0 0.0 warmup_obs
o43852 0.0 0.0 warmup_obs
o43853 0.0 0.0 warmup_obs
o43854 0.0 0.0 warmup_obs
o43855 0.0 0.0 warmup_obs
o43856 0.0 0.0 warmup_obs
o43857 0.0 0.0 warmup_obs
o43858 0.0 0.0 warmup_obs
o43859 0.0 0.0 warmup_obs
o43860 0.0 0.0 warmup_obs
o43861 0.0 0.0 warmup_obs
o43862 0.0 0.0 warmup_obs
o43863 0.0 0.0 warmup_obs
o43864 0.0 0.0 warmup_obs
o43865 0.0 0.0 warmup_obs
o43866 0.0 0.0 warmup_obs
o43867 0.0 0.0 warmup_obs
o43868 0.0 0.0 warmup_obs
o43869 0.0 0.0 warmup_obs
o43870 0.0 0.0 warmup_obs
o43871 0.0 0.0 warmup_obs
o43872 0.0 0.0 warmup_obs
o43873 0.0 0.0 warmup_obs
o43874 0.0 0.0 warmup_obs
o43875 0.0 0.0 warmup_obs
o43876 0.0 0.0 warmup_obs
o43877 0.0 0.0 warmup_obs
o43878 0.0 0.0 warmup_obs
o43879 0.0 0.0 warmup_obs
o43880 0.0 0.0 warmup_obs
o43881 0.0 0.0 warmup_obs
o43882 0.0 0.0 warmup_obs
o43883 0.0 0.0 warmup_obs
o43884 0.0 0.0 warmup_obs
o43885 0.0 0.0 warmup_obs
o43886 0.0 0.0 warmup_obs
o43887 0.0 0.0 warmup_obs
o43888 0.0 0.0 warmup_obs
o43889 0.0 0.0 warmup_obs
o43890 0.0 0.0 warmup_obs
o43891 0.0 0.0 warmup_obs
o43892 0.0 0.0 warmup_obs
o43893 0.0 0.0 warmup_obs
o43894 0.0 0.0 warmup_obs
o43895 0.0 0.0 warmup_obs
o43896 0.0 0.0 warmup_obs
o43897 0.0 0.0 warmup_obs
o43898 0.0 0.0 warmup_obs
o43899 0.0 0.0 warmup_obs
o43900 0.0 0.0 warmup_obs
o43901 0.0 0.0 warmup_obs
o43902 0.0 0.0 warmup_obs
o43903 0.0 0.0 warmup_obs
o43904 0.0 0.0 warmup_obs
o43905 0.0 0.0 warmup_obs
o43906 0.0 0.0 warmup_obs
o43907 0.0 0.0 warmup_obs
o43908 0.0 0.0 warmup_obs
o43909 0.0 0.0 warmup_obs
o43910 0.0 0.0 warmup_obs
o43911 0.0 0.0 warmup_obs
o43912 0.0 0.0 warmup_obs
o43913 0.0 0.0 warmup_obs
o43914 0.0 0.0 warmup_obs
o43915 0.0 0.0 warmup_obs
o43916 0.0 0.0 warmup_obs
o43917 0.0 0.0 warmup_obs
o43918 0.0 0.0 warmup_obs
o43919 0.0 0.0 warmup_obs
o43920 0.0 0.0 warmup_obs
o43921 0.0 0.0 warmup_obs
o43922 0.0 0.0 warmup_obs
o43923 0.0 0.0 warmup_obs
o43924 0.0 0.0 warmup_obs
o43925 0.0 0.0 warmup_obs
o43926 0.0 0.0 warmup_obs
o43927 0.0 0.0 warmup_obs
o43928 0.0 0.0 warmup_obs
o43929 0.0 0.0 warmup_obs
o43930 0.0 0.0 warmup_obs
o43931 0.0 0.0 warmup_obs
o43932 0.0 0.0 warmup_obs
o43933 0.0 0.0 warmup_obs
o43934 0.0 0.0 warmup_obs
o43935 0.0 0.0 warmup_obs
o43936 0.0 0.0 warmup_obs
o43937 0.0 0.0 warmup_obs
o43938 0.0 0.0 warmup_obs
o43939 0.0 0.0 warmup_obs
o43940 0.0 0.0 warmup_obs
o43941 0.0 0.0 warmup_obs
o43942 0.0 0.0 warmup_obs
o43943 0.0 0.0 warmup_obs
o43944 0.0 0.0 warmup_obs
o43945 0.0 0.0 warmup_obs
o43946 0.0 0.0 warmup_obs
o43947 0.0 0.0 warmup_obs
o43948 0.0 0.0 warmup_obs
o43949 0.0 0.0 warmup_obs
o43950 0.0 0.0 warmup_obs
o43951 0.0 0.0 warmup_obs
o43952 0.0 0.0 warmup_obs
o43953 0.0 0.0 warmup_obs
o43954 0.0 0.0 warmup_obs
o43955 0.0 0.0 warmup_obs
o43956 0.0 0.0 warmup_obs
o43957 0.0 0.0 warmup_obs
o43958 0.0 0.0 warmup_obs
o43959 0.0 0.0 warmup_obs
o43960 0.0 0.0 warmup_obs
o43961 0.0 0.0 warmup_obs
o43962 0.0 0.0 warmup_obs
o43963 0.0 0.0 warmup_obs
o43964 0.0 0.0 warmup_obs
o43965 0.0 0.0 warmup_obs
o43966 0.0 0.0 warmup_obs
o43967 0.0 0.0 warmup_obs
o43968 0.0 0.0 warmup_obs
o43969 0.0 0.0 warmup_obs
o43970 0.0 0.0 warmup_obs
o43971 0.0 0.0 warmup_obs
o43972 0.0 0.0 warmup_obs
o43973 0.0 0.0 warmup_obs
o43974 0.0 0.0 warmup_obs
o43975 0.0 0.0 warmup_obs
o43976 0.0 0.0 warmup_obs
o43977 0.0 0.0 warmup_obs
o43978 0.0 0.0 warmup_obs
o43979 0.0 0.0 warmup_obs
o43980 0.0 0.0 warmup_obs
o43981 0.0 0.0 warmup_obs
o43982 0.0 0.0 warmup_obs
o43983 0.0 0.0 warmup_obs
o43984 0.0 0.0 warmup_obs
o43985 0.0 0.0 warmup_obs
o43986 0.0 0.0 warmup_obs
o43987 0.0 0.0 warmup_obs
o43988 0.0 0.0 warmup_obs
o43989 0.0 0.0 warmup_obs
o43990 0.0 0.0 warmup_obs
o43991 0.0 0.0 warmup_obs
o43992 0.0 0.0 warmup_obs
o43993 0.0 0.0 warmup_obs
o43994 0.0 0.0 warmup_obs
o43995 0.0 0.0 warmup_obs
o43996 0.0 0.0 warmup_obs
o43997 0.0 0.0 warmup_obs
o43998 0.0 0.0 warmup_obs
o43999 0.0 0.0 warmup_obs
o44000 0.0 0.0 warmup_obs
o44001 0.0 0.0 warmup_obs
o44002 0.0 0.0 warmup_obs
o44003 0.0 0.0 warmup_obs
o44004 0.0 0.0 warmup_obs
o44005 0.0 0.0 warmup_obs
o44006 0.0 0.0 warmup_obs
o44007 0.0 0.0 warmup_obs
o44008 0.0 0.0 warmup_obs
o44009 0.0 0.0 warmup_obs
o44010 0.0 0.0 warmup_obs
o44011 0.0 0.0 warmup_obs
o44012 0.0 0.0 warmup_obs
o44013 0.0 0.0 warmup_obs
o44014 0.0 0.0 warmup_obs
o44015 0.0 0.0 warmup_obs
o44016 0.0 0.0 warmup_obs
o44017 0.0 0.0 warmup_obs
o44018 0.0 0.0 warmup_obs
o44019 0.0 0.0 warmup_obs
o44020 0.0 0.0 warmup_obs
o44021 0.0 0.0 warmup_obs
o44022 0.0 0.0 warmup_obs
o44023 0.0 0.0 warmup_obs
o44024 0.0 0.0 warmup_obs
o44025 0.0 0.0 warmup_obs
o44026 0.0 0.0 warmup_obs
o44027 0.0 0.0 warmup_obs
o44028 0.0 0.0 warmup_obs
o44029 0.0 0.0 warmup_obs
o44030 0.0 0.0 warmup_obs
o44031 0.0 0.0 warmup_obs
o44032 0.0 0.0 warmup_obs
o44033 0.0 0.0 warmup_obs
o44034 0.0 0.0 warmup_obs
o44035 0.0 0.0 warmup_obs
o44036 0.0 0.0 warmup_obs
o44037 0.0 0.0 warmup_obs
o44038 0.0 0.0 warmup_obs
o44039 0.0 0.0 warmup_obs
o44040 0.0 0.0 warmup_obs
o44041 0.0 0.0 warmup_obs
o44042 0.0 0.0 warmup_obs
o44043 0.0 0.0 warmup_obs
o44044 0.0 0.0 warmup_obs
o44045 0.0 0.0 warmup_obs
o44046 0.0 0.0 warmup_obs
o44047 0.0 0.0 warmup_obs
o44048 0.0 0.0 warmup_obs
o44049 0.0 0.0 warmup_obs
o44050 0.0 0.0 warmup_obs
o44051 0.0 0.0 warmup_obs
o44052 0.0 0.0 warmup_obs
o44053 0.0 0.0 warmup_obs
o44054 0.0 0.0 warmup_obs
o44055 0.0 0.0 warmup_obs
o44056 0.0 0.0 warmup_obs
o44057 0.0 0.0 warmup_obs
o44058 0.0 0.0 warmup_obs
o44059 0.0 0.0 warmup_obs
o44060 0.0 0.0 warmup_obs
o44061 0.0 0.0 warmup_obs
o44062 0.0 0.0 warmup_obs
o44063 0.0 0.0 warmup_obs
o44064 0.0 0.0 warmup_obs
o44065 0.0 0.0 warmup_obs
o44066 0.0 0.0 warmup_obs
o44067 0.0 0.0 warmup_obs
o44068 0.0 0.0 warmup_obs
o44069 0.0 0.0 warmup_obs
o44070 0.0 0.0 warmup_obs
o44071 0.0 0.0 warmup_obs
o44072 0.0 0.0 warmup_obs
o44073 0.0 0.0 warmup_obs
o44074 0.0 0.0 warmup_obs
o44075 0.0 0.0 warmup_obs
o44076 0.0 0.0 warmup_obs
o44077 0.0 0.0 warmup_obs
o44078 0.0 0.0 warmup_obs
o44079 0.0 0.0 warmup_obs
o44080 0.0 0.0 warmup_obs
o44081 0.0 0.0 warmup_obs
o44082 0.0 0.0 warmup_obs
o44083 0.0 0.0 warmup_obs
o44084 0.0 0.0 warmup_obs
o44085 0.0 0.0 warmup_obs
o44086 0.0 0.0 warmup_obs
o44087 0.0 0.0 warmup_obs
o44088 0.0 0.0 warmup_obs
o44089 0.0 0.0 warmup_obs
o44090 0.0 0.0 warmup_obs
o44091 0.0 0.0 warmup_obs
o44092 0.0 0.0 warmup_obs
o44093 0.0 0.0 warmup_obs
o44094 0.0 0.0 warmup_obs
o44095 0.0 0.0 warmup_obs
o44096 0.0 0.0 warmup_obs
o44097 0.0 0.0 warmup_obs
o44098 0.0 0.0 warmup_obs
o44099 0.0 0.0 warmup_obs
o44100 0.0 0.0 warmup_obs
o44101 0.0 0.0 warmup_obs
o44102 0.0 0.0 warmup_obs
o44103 0.0 0.0 warmup_obs
o44104 0.0 0.0 warmup_obs
o44105 0.0 0.0 warmup_obs
o44106 0.0 0.0 warmup_obs
o44107 0.0 0.0 warmup_obs
o44108 0.0 0.0 warmup_obs
o44109 0.0 0.0 warmup_obs
o44110 0.0 0.0 warmup_obs
o44111 0.0 0.0 warmup_obs
o44112 0.0 0.0 warmup_obs
o44113 0.0 0.0 warmup_obs
o44114 0.0 0.0 warmup_obs
o44115 0.0 0.0 warmup_obs
o44116 0.0 0.0 warmup_obs
o44117 0.0 0.0 warmup_obs
o44118 0.0 0.0 warmup_obs
o44119 0.0 0.0 warmup_obs
o44120 0.0 0.0 warmup_obs
o44121 0.0 0.0 warmup_obs
o44122 0.0 0.0 warmup_obs
o44123 0.0 0.0 warmup_obs
o44124 0.0 0.0 warmup_obs
o44125 0.0 0.0 warmup_obs
o44126 0.0 0.0 warmup_obs
o44127 0.0 0.0 warmup_obs
o44128 0.0 0.0 warmup_obs
o44129 0.0 0.0 warmup_obs
o44130 0.0 0.0 warmup_obs
o44131 0.0 0.0 warmup_obs
o44132 0.0 0.0 warmup_obs
o44133 0.0 0.0 warmup_obs
o44134 0.0 0.0 warmup_obs
o44135 0.0 0.0 warmup_obs
o44136 0.0 0.0 warmup_obs
o44137 0.0 0.0 warmup_obs
o44138 0.0 0.0 warmup_obs
o44139 0.0 0.0 warmup_obs
o44140 0.0 0.0 warmup_obs
o44141 0.0 0.0 warmup_obs
o44142 0.0 0.0 warmup_obs
o44143 0.0 0.0 warmup_obs
o44144 0.0 0.0 warmup_obs
o44145 0.0 0.0 warmup_obs
o44146 0.0 0.0 warmup_obs
o44147 0.0 0.0 warmup_obs
o44148 0.0 0.0 warmup_obs
o44149 0.0 0.0 warmup_obs
o44150 0.0 0.0 warmup_obs
o44151 0.0 0.0 warmup_obs
o44152 0.0 0.0 warmup_obs
o44153 0.0 0.0 warmup_obs
o44154 0.0 0.0 warmup_obs
o44155 0.0 0.0 warmup_obs
o44156 0.0 0.0 warmup_obs
o44157 0.0 0.0 warmup_obs
o44158 0.0 0.0 warmup_obs
o44159 0.0 0.0 warmup_obs
o44160 0.0 0.0 warmup_obs
o44161 0.0 0.0 warmup_obs
o44162 0.0 0.0 warmup_obs
o44163 0.0 0.0 warmup_obs
o44164 0.0 0.0 warmup_obs
o44165 0.0 0.0 warmup_obs
o44166 0.0 0.0 warmup_obs
o44167 0.0 0.0 warmup_obs
o44168 0.0 0.0 warmup_obs
o44169 0.0 0.0 warmup_obs
o44170 0.0 0.0 warmup_obs
o44171 0.0 0.0 warmup_obs
o44172 0.0 0.0 warmup_obs
o44173 0.0 0.0 warmup_obs
o44174 0.0 0.0 warmup_obs
o44175 0.0 0.0 warmup_obs
o44176 0.0 0.0 warmup_obs
o44177 0.0 0.0 warmup_obs
o44178 0.0 0.0 warmup_obs
o44179 0.0 0.0 warmup_obs
o44180 0.0 0.0 warmup_obs
o44181 0.0 0.0 warmup_obs
o44182 0.0 0.0 warmup_obs
o44183 0.0 0.0 warmup_obs
o44184 0.0 0.0 warmup_obs
o44185 0.0 0.0 warmup_obs
o44186 0.0 0.0 warmup_obs
o44187 0.0 0.0 warmup_obs
o44188 0.0 0.0 warmup_obs
o44189 0.0 0.0 warmup_obs
o44190 0.0 0.0 warmup_obs
o44191 0.0 0.0 warmup_obs
o44192 0.0 0.0 warmup_obs
o44193 0.0 0.0 warmup_obs
o44194 0.0 0.0 warmup_obs
o44195 0.0 0.0 warmup_obs
o44196 0.0 0.0 warmup_obs
o44197 0.0 0.0 warmup_obs
o44198 0.0 0.0 warmup_obs
o44199 0.0 0.0 warmup_obs
o44200 0.0 0.0 warmup_obs
o44201 0.0 0.0 warmup_obs
o44202 0.0 0.0 warmup_obs
o44203 3.0 0.78125 calib_obs
o44204 2.9 0.78125 calib_obs
o44205 2.3 0.78125 calib_obs
o44206 2.2 0.78125 calib_obs
o44207 2.6 0.78125 calib_obs
o44208 3.2 0.78125 calib_obs
o44209 2.8 0.78125 calib_obs
o44210 2.0 0.78125 calib_obs
o44211 1.7 0.78125 calib_obs
o44212 1.8 0.78125 calib_obs
o44213 2.0 0.78125 calib_obs
o44214 1.9 0.78125 calib_obs
o44215 1.9 0.78125 calib_obs
o44216 1.9 0.78125 calib_obs
o44217 1.9 0.78125 calib_obs
o44218 1.8 0.78125 calib_obs
o44219 1.7 0.78125 calib_obs
o44220 1.7 0.78125 calib_obs
o44221 1.8 0.78125 calib_obs
o44222 1.8 0.78125 calib_obs
o44223 1.7 0.78125 calib_obs
o44224 1.7 0.78125 calib_obs
o44225 1.7 0.78125 calib_obs
o44226 1.7 0.78125 calib_obs
o44227 1.59 0.78125 calib_obs
o44228 1.59 0.78125 calib_obs
o44229 1.7 0.78125 calib_obs
o44230 1.7 0.78125 calib_obs
o44231 1.7 0.78125 calib_obs
o44232 1.8 0.78125 calib_obs
o44233 1.8 0.78125 calib_obs
o44234 1.7 0.78125 calib_obs
o44235 1.7 0.78125 calib_obs
o44236 1.7 0.78125 calib_obs
o44237 1.7 0.78125 calib_obs
o44238 1.7 0.78125 calib_obs
o44239 1.59 0.78125 calib_obs
o44240 1.33 2.34375 calib_obs
o44241 1.59 0.78125 calib_obs
o44242 1.5 0.78125 calib_obs
o44243 1.5 0.78125 calib_obs
o44244 1.5 0.78125 calib_obs
o44245 1.59 0.78125 calib_obs
o44246 1.59 0.78125 calib_obs
o44247 1.7 0.78125 calib_obs
o44248 1.7 0.78125 calib_obs
o44249 1.59 0.78125 calib_obs
o44250 1.8 0.78125 calib_obs
o44251 2.2 0.78125 calib_obs
o44252 2.3 0.78125 calib_obs
o44253 3.5 0.78125 calib_obs
o44254 2.8 0.78125 calib_obs
o44255 2.2 0.78125 calib_obs
o44256 2.3 0.78125 calib_obs
o44257 2.3 0.78125 calib_obs
o44258 2.3 0.78125 calib_obs
o44259 2.2 0.78125 calib_obs
o44260 2.2 0.78125 calib_obs
o44261 2.1 0.78125 calib_obs
o44262 4.0 0.78125 calib_obs
o44263 7.0 0.78125 calib_obs
o44264 8.3 0.78125 calib_obs
o44265 7.4 0.78125 calib_obs
o44266 5.2 0.78125 calib_obs
o44267 3.9 0.78125 calib_obs
o44268 3.0 0.78125 calib_obs
o44269 2.9 0.78125 calib_obs
o44270 2.8 0.78125 calib_obs
o44271 2.6 0.78125 calib_obs
o44272 2.9 0.78125 calib_obs
o44273 2.9 0.78125 calib_obs
o44274 3.0 0.78125 calib_obs
o44275 4.0 0.78125 calib_obs
o44276 7.2 0.78125 calib_obs
o44277 11.4 0.78125 calib_obs
o44278 12.1 0.78125 calib_obs
o44279 12.1 0.78125 calib_obs
o44280 9.7 0.78125 calib_obs
o44281 8.7 0.78125 calib_obs
o44282 7.6 0.78125 calib_obs
o44283 9.5 0.78125 calib_obs
o44284 10.9 0.78125 calib_obs
o44285 10.5 0.78125 calib_obs
o44286 9.1 0.78125 calib_obs
o44287 7.9 0.78125 calib_obs
o44288 8.7 0.78125 calib_obs
o44289 9.9 0.78125 calib_obs
o44290 9.5 0.78125 calib_obs
o44291 8.3 0.78125 calib_obs
o44292 7.2 0.78125 calib_obs
o44293 6.3 0.78125 calib_obs
o44294 6.3 0.78125 calib_obs
o44295 7.4 0.78125 calib_obs
o44296 8.1 0.78125 calib_obs
o44297 8.9 0.78125 calib_obs
o44298 9.5 0.78125 calib_obs
o44299 9.7 0.78125 calib_obs
o44300 9.9 0.78125 calib_obs
o44301 9.7 0.78125 calib_obs
o44302 9.5 0.78125 calib_obs
o44303 10.5 0.78125 calib_obs
o44304 10.7 0.78125 calib_obs
o44305 10.1 0.78125 calib_obs
o44306 8.9 0.78125 calib_obs
o44307 7.7 0.78125 calib_obs
o44308 6.6 0.78125 calib_obs
o44309 5.9 0.78125 calib_obs
o44310 5.2 0.78125 calib_obs
o44311 4.5 0.78125 calib_obs
o44312 3.7 0.78125 calib_obs
o44313 3.9 0.78125 calib_obs
o44314 4.52 0.78125 calib_obs
o44315 4.83 0.78125 calib_obs
o44316 4.91 0.78125 calib_obs
o44317 4.98 0.78125 calib_obs
o44318 6.15 0.78125 calib_obs
o44319 7.2 0.78125 calib_obs
o44320 6.68 0.78125 calib_obs
o44321 5.82 0.78125 calib_obs
o44322 5.84 0.78125 calib_obs
o44323 7.6 0.78125 calib_obs
o44324 7.96 0.78125 calib_obs
o44325 7.34 0.78125 calib_obs
o44326 6.32 0.78125 calib_obs
o44327 5.41 0.78125 calib_obs
o44328 4.87 0.78125 calib_obs
o44329 4.5 0.78125 calib_obs
o44330 4.29 0.78125 calib_obs
o44331 3.97 0.78125 calib_obs
o44332 3.74 0.78125 calib_obs
o44333 3.47 0.78125 calib_obs
o44334 3.3 0.78125 calib_obs
o44335 3.05 0.78125 calib_obs
o44336 2.89 0.78125 calib_obs
o44337 2.81 0.78125 calib_obs
o44338 2.72 0.78125 calib_obs
o44339 2.56 0.78125 calib_obs
o44340 2.41 0.78125 calib_obs
o44341 2.36 0.78125 calib_obs
o44342 2.33 0.78125 calib_obs
o44343 2.24 0.78125 calib_obs
o44344 2.11 0.78125 calib_obs
o44345 2.02 0.78125 calib_obs
o44346 1.96 0.78125 calib_obs
o44347 1.91 0.78125 calib_obs
o44348 1.82 0.78125 calib_obs
o44349 1.71 0.78125 calib_obs
o44350 1.64 0.78125 calib_obs
o44351 1.6 0.78125 calib_obs
o44352 1.57 0.78125 calib_obs
o44353 1.61 0.78125 calib_obs
o44354 1.73 0.78125 calib_obs
o44355 1.89 0.78125 calib_obs
o44356 1.88 0.78125 calib_obs
o44357 1.71 0.78125 calib_obs
o44358 1.57 0.78125 calib_obs
o44359 1.54 0.78125 calib_obs
o44360 1.59 0.78125 calib_obs
o44361 1.6 0.78125 calib_obs
o44362 1.84 0.78125 calib_obs
o44363 2.06 0.78125 calib_obs
o44364 2.04 0.78125 calib_obs
o44365 1.91 0.78125 calib_obs
o44366 2.61 0.78125 calib_obs
o44367 4.39 0.78125 calib_obs
o44368 4.56 0.78125 calib_obs
o44369 3.95 0.78125 calib_obs
o44370 2.98 0.78125 calib_obs
o44371 2.32 0.78125 calib_obs
o44372 2.0 0.78125 calib_obs
o44373 1.88 0.78125 calib_obs
o44374 1.87 0.78125 calib_obs
o44375 1.88 0.78125 calib_obs
o44376 1.92 0.78125 calib_obs
o44377 1.89 0.78125 calib_obs
o44378 1.79 0.78125 calib_obs
o44379 1.7 0.78125 calib_obs
o44380 2.37 0.78125 calib_obs
o44381 2.38 0.78125 calib_obs
o44382 2.7 0.78125 calib_obs
o44383 2.41 0.78125 calib_obs
o44384 2.15 0.78125 calib_obs
o44385 1.96 0.78125 calib_obs
o44386 1.86 0.78125 calib_obs
o44387 1.78 0.78125 calib_obs
o44388 1.84 0.78125 calib_obs
o44389 1.95 0.78125 calib_obs
o44390 1.93 0.78125 calib_obs
o44391 1.84 0.78125 calib_obs
o44392 1.67 0.78125 calib_obs
o44393 1.38 2.34375 calib_obs
o44394 1.25 2.34375 calib_obs
o44395 1.31 2.34375 calib_obs
o44396 1.44 0.78125 calib_obs
o44397 1.54 0.78125 calib_obs
o44398 1.47 0.78125 calib_obs
o44399 1.39 2.34375 calib_obs
o44400 1.27 2.34375 calib_obs
o44401 1.27 2.34375 calib_obs
o44402 1.34 2.34375 calib_obs
o44403 1.35 2.34375 calib_obs
o44404 1.3 2.34375 calib_obs
o44405 1.3 2.34375 calib_obs
o44406 1.3 2.34375 calib_obs
o44407 1.27 2.34375 calib_obs
o44408 1.2 2.34375 calib_obs
o44409 1.15 2.34375 calib_obs
o44410 1.13 2.34375 calib_obs
o44411 1.12 2.34375 calib_obs
o44412 1.11 2.34375 calib_obs
o44413 1.11 2.34375 calib_obs
o44414 1.11 2.34375 calib_obs
o44415 1.09 2.34375 calib_obs
o44416 1.24 2.34375 calib_obs
o44417 2.07 0.78125 calib_obs
o44418 2.34 0.78125 calib_obs
o44419 3.03 0.78125 calib_obs
o44420 3.09 0.78125 calib_obs
o44421 3.77 0.78125 calib_obs
o44422 4.32 0.78125 calib_obs
o44423 3.94 0.78125 calib_obs
o44424 3.38 0.78125 calib_obs
o44425 2.84 0.78125 calib_obs
o44426 2.39 0.78125 calib_obs
o44427 2.41 0.78125 calib_obs
o44428 2.8 0.78125 calib_obs
o44429 2.88 0.78125 calib_obs
o44430 2.79 0.78125 calib_obs
o44431 2.52 0.78125 calib_obs
o44432 2.31 0.78125 calib_obs
o44433 2.21 0.78125 calib_obs
o44434 2.13 0.78125 calib_obs
o44435 2.06 0.78125 calib_obs
o44436 1.97 0.78125 calib_obs
o44437 1.93 0.78125 calib_obs
o44438 1.88 0.78125 calib_obs
o44439 1.83 0.78125 calib_obs
o44440 1.74 0.78125 calib_obs
o44441 1.68 0.78125 calib_obs
o44442 1.67 0.78125 calib_obs
o44443 1.62 0.78125 calib_obs
o44444 1.6 0.78125 calib_obs
o44445 1.59 0.78125 calib_obs
o44446 1.67 0.78125 calib_obs
o44447 1.91 0.78125 calib_obs
o44448 1.93 0.78125 calib_obs
o44449 1.77 0.78125 calib_obs
o44450 1.65 0.78125 calib_obs
o44451 1.57 0.78125 calib_obs
o44452 1.54 0.78125 calib_obs
o44453 1.54 0.78125 calib_obs
o44454 1.58 0.78125 calib_obs
o44455 2.0 0.78125 calib_obs
o44456 2.28 0.78125 calib_obs
o44457 3.72 0.78125 calib_obs
o44458 5.53 0.78125 calib_obs
o44459 4.71 0.78125 calib_obs
o44460 4.57 0.78125 calib_obs
o44461 4.18 0.78125 calib_obs
o44462 3.79 0.78125 calib_obs
o44463 3.25 0.78125 calib_obs
o44464 2.83 0.78125 calib_obs
o44465 2.41 0.78125 calib_obs
o44466 2.27 0.78125 calib_obs
o44467 2.1 0.78125 calib_obs
o44468 2.06 0.78125 calib_obs
o44469 2.0 0.78125 calib_obs
o44470 1.95 0.78125 calib_obs
o44471 1.89 0.78125 calib_obs
o44472 1.85 0.78125 calib_obs
o44473 1.77 0.78125 calib_obs
o44474 1.75 0.78125 calib_obs
o44475 1.74 0.78125 calib_obs
o44476 1.69 0.78125 calib_obs
o44477 1.68 0.78125 calib_obs
o44478 1.84 0.78125 calib_obs
o44479 8.84 0.78125 calib_obs
o44480 11.04 0.78125 calib_obs
o44481 7.95 0.78125 calib_obs
o44482 6.93 0.78125 calib_obs
o44483 7.51 0.78125 calib_obs
o44484 10.99 0.78125 calib_obs
o44485 15.11 0.78125 calib_obs
o44486 28.91 0.78125 calib_obs
o44487 22.38 0.78125 calib_obs
o44488 26.15 0.78125 calib_obs
o44489 22.44 0.78125 calib_obs
o44490 20.0 0.78125 calib_obs
o44491 19.3 0.78125 calib_obs
o44492 18.2 0.78125 calib_obs
o44493 17.1 0.78125 calib_obs
o44494 16.1 0.78125 calib_obs
o44495 14.6 0.78125 calib_obs
o44496 13.4 0.78125 calib_obs
o44497 12.3 0.78125 calib_obs
o44498 11.3 0.78125 calib_obs
o44499 10.1 0.78125 calib_obs
o44500 9.1 0.78125 calib_obs
o44501 8.3 0.78125 calib_obs
o44502 7.7 0.78125 calib_obs
o44503 8.3 0.78125 calib_obs
o44504 16.1 0.78125 calib_obs
o44505 16.1 0.78125 calib_obs
o44506 14.0 0.78125 calib_obs
o44507 12.9 0.78125 calib_obs
o44508 11.7 0.78125 calib_obs
o44509 10.9 0.78125 calib_obs
o44510 10.1 0.78125 calib_obs
o44511 10.1 0.78125 calib_obs
o44512 10.1 0.78125 calib_obs
o44513 10.7 0.78125 calib_obs
o44514 10.5 0.78125 calib_obs
o44515 10.1 0.78125 calib_obs
o44516 10.7 0.78125 calib_obs
o44517 11.9 0.78125 calib_obs
o44518 18.6 0.78125 calib_obs
o44519 15.4 0.78125 calib_obs
o44520 13.8 0.78125 calib_obs
o44521 13.1 0.78125 calib_obs
o44522 12.5 0.78125 calib_obs
o44523 12.1 0.78125 calib_obs
o44524 12.1 0.78125 calib_obs
o44525 18.2 0.78125 calib_obs
o44526 19.3 0.78125 calib_obs
o44527 16.0 0.78125 calib_obs
o44528 14.8 0.78125 calib_obs
o44529 14.2 0.78125 calib_obs
o44530 15.0 0.78125 calib_obs
o44531 17.8 0.78125 calib_obs
o44532 17.3 0.78125 calib_obs
o44533 18.6 0.78125 calib_obs
o44534 22.0 0.78125 calib_obs
o44535 22.0 0.78125 calib_obs
o44536 21.0 0.78125 calib_obs
o44537 19.9 0.78125 calib_obs
o44538 18.6 0.78125 calib_obs
o44539 19.1 0.78125 calib_obs
o44540 21.0 0.78125 calib_obs
o44541 19.1 0.78125 calib_obs
o44542 17.8 0.78125 calib_obs
o44543 16.3 0.78125 calib_obs
o44544 18.0 0.78125 calib_obs
o44545 20.0 0.78125 calib_obs
o44546 18.4 0.78125 calib_obs
o44547 16.9 0.78125 calib_obs
o44548 16.0 0.78125 calib_obs
o44549 15.4 0.78125 calib_obs
o44550 14.4 0.78125 calib_obs
o44551 13.6 0.78125 calib_obs
o44552 13.6 0.78125 calib_obs
o44553 13.8 0.78125 calib_obs
o44554 12.9 0.78125 calib_obs
o44555 12.3 0.78125 calib_obs
o44556 11.4 0.78125 calib_obs
o44557 13.36 0.78125 calib_obs
o44558 13.36 0.78125 calib_obs
o44559 12.7 0.78125 calib_obs
o44560 12.1 0.78125 calib_obs