pcf
* control data
restart estimation
146 3653 2 0 3
1 1 double point 1 0 0
10.0 5.0 0.5 0.005 20
5.0 5.0 0.005 0
0.01
50 0.01 8 8 0.01 8
1 1 1
* parameter groups
paramGroup1 relative 0.01 0.001 switch 2.0 parabolic
paramGroup2 absolute 0.05 0.001 switch 2.0 parabolic
* parameter data
ttpi none relative 1.0 0.0 2.0 paramGroup1 1.0000 0.0000 1
lp none relative 0.9 0.8 1.0 paramGroup1 1.0000 0.0000 1
cevpam fixed relative 0.5 0.5 0.5 paramGroup1 1.0000 0.0000 1
cevpph fixed relative 45 45 45 paramGroup1 1.0000 0.0000 1
rrcs3 fixed relative 0.0002 0.0002 0.0002 paramGroup1 1.0000 0.0000 1
damp none relative 0.255 0.01 0.95 paramGroup1 1.0000 0.0000 1
rivvel none relative 0.75 0.3 1 paramGroup1 1.0000 0.0000 1
tcalt fixed relative 0.6 0.6 0.6 paramGroup1 1.0000 0.0000 1
qmean fixed relative 25 25 25 paramGroup1 1.0000 0.0000 1
epotdist fixed relative 3 3 3 paramGroup1 1.0000 0.0000 1
gldepi none relative 3.0 1.0 10.0 paramGroup1 1.0000 0.0000 1
gratp none relative 2.25 2 2.5 paramGroup1 1.0000 0.0000 1
gratk none relative 1.0 0.05 2.0 paramGroup1 1.0000 0.0000 1
sdnsnew fixed relative 0.145 0.1 0.19 paramGroup1 1.0000 0.0000 1
snowdensdt fixed relative 0.0014 0.0014 0.0014 paramGroup1 1.0000 0.0000 1
ttmp_10 fixed relative 1.0 0.0 2.0 paramGroup1 1.0000 0.0000 1
ttmp_11 none relative 1.0 0.0 2.0 paramGroup1 1.0000 0.0000 1
ttmp_12 fixed relative 1.0 0.0 2.0 paramGroup1 1.0000 0.0000 1
ttmp_13 none relative 1.0 0.0 2.0 paramGroup1 1.0000 0.0000 1
ttmp_14 none relative 1.0 -1.0 2.0 paramGroup2 1.0000 0.0000 1
ttmp_15 none relative 1.0 0.0 2.0 paramGroup1 1.0000 0.0000 1
ttmp_16 none relative 1.0 0.0 2.0 paramGroup1 1.0000 0.0000 1
ttmp_17 none relative 1.0 -2.0 2.0 paramGroup2 1.0000 0.0000 1
cmlt_10 fixed relative 2.6 0.2 5.0 paramGroup1 1.0000 0.0000 1
cmlt_11 none relative 2.6 0.2 8.0 paramGroup1 1.0000 0.0000 1
cmlt_12 fixed relative 2.6 0.2 5.0 paramGroup1 1.0000 0.0000 1
cmlt_13 none relative 2.6 0.2 5.0 paramGroup1 1.0000 0.0000 1
cmlt_14 none relative 2.6 0.2 5.0 paramGroup1 1.0000 0.0000 1
cmlt_15 none relative 2.6 0.2 5.0 paramGroup1 1.0000 0.0000 1
cmlt_16 none relative 2.6 0.2 5.0 paramGroup1 1.0000 0.0000 1
cmlt_17 none relative 2.6 0.2 8.0 paramGroup1 1.0000 0.0000 1
cevp_10 fixed relative 0.15 0.1 0.2 paramGroup1 1.0000 0.0000 1
cevp_11 none relative 0.15 0.1 0.2 paramGroup1 1.0000 0.0000 1
cevp_12 fixed relative 0.15 0.1 0.2 paramGroup1 1.0000 0.0000 1
cevp_13 none relative 0.15 0.1 0.2 paramGroup1 1.0000 0.0000 1
cevp_14 none relative 0.15 0.1 0.2 paramGroup1 1.0000 0.0000 1
cevp_15 none relative 0.15 0.1 0.2 paramGroup1 1.0000 0.0000 1
cevp_16 none relative 0.15 0.1 0.2 paramGroup1 1.0000 0.0000 1
cevp_17 none relative 0.15 0.1 0.2 paramGroup1 1.0000 0.0000 1
srrcs_10 fixed relative 0.15 0.1 0.2 paramGroup1 1.0000 0.0000 1
srrcs_11 none relative 0.15 0.1 0.2 paramGroup1 1.0000 0.0000 1
srrcs_12 fixed relative 0.15 0.1 0.2 paramGroup1 1.0000 0.0000 1
srrcs_13 none relative 0.15 0.1 0.2 paramGroup1 1.0000 0.0000 1
srrcs_14 none relative 0.15 0.1 0.2 paramGroup1 1.0000 0.0000 1
srrcs_15 none relative 0.15 0.1 0.2 paramGroup1 1.0000 0.0000 1
srrcs_16 none relative 0.15 0.1 0.2 paramGroup1 1.0000 0.0000 1
srrcs_17 none relative 0.15 0.1 0.2 paramGroup1 1.0000 0.0000 1
frost_10 fixed relative 2.0 2.0 2.0 paramGroup1 1.0000 0.0000 1
frost_11 fixed relative 2.0 2.0 2.0 paramGroup1 1.0000 0.0000 1
frost_12 fixed relative 2.0 2.0 2.0 paramGroup1 1.0000 0.0000 1
frost_13 fixed relative 2.0 2.0 2.0 paramGroup1 1.0000 0.0000 1
frost_14 fixed relative 2.0 2.0 2.0 paramGroup1 1.0000 0.0000 1
frost_15 fixed relative 2.0 2.0 2.0 paramGroup1 1.0000 0.0000 1
frost_16 fixed relative 2.0 2.0 2.0 paramGroup1 1.0000 0.0000 1
frost_17 fixed relative 2.0 2.0 2.0 paramGroup1 1.0000 0.0000 1
rrcs1_100 fixed relative 0.375 0.05 0.7 paramGroup1 1.0000 0.0000 1
rrcs1_101 none relative 0.375 0.05 0.7 paramGroup1 1.0000 0.0000 1
rrcs1_102 none relative 0.375 0.05 0.7 paramGroup1 1.0000 0.0000 1
rrcs1_103 none relative 0.375 0.05 0.7 paramGroup1 1.0000 0.0000 1
rrcs1_104 none relative 0.375 0.05 0.7 paramGroup1 1.0000 0.0000 1
rrcs1_105 none relative 0.375 0.05 1.0 paramGroup1 1.0000 0.0000 1
rrcs1_106 none relative 0.375 0.05 0.7 paramGroup1 1.0000 0.0000 1
rrcs2_100 fixed relative 0.0255 0.001 0.05 paramGroup1 1.0000 0.0000 1
rrcs2_101 none relative 0.0255 0.001 0.05 paramGroup1 1.0000 0.0000 1
rrcs2_102 none relative 0.0255 0.001 0.05 paramGroup1 1.0000 0.0000 1
rrcs2_103 none relative 0.0255 0.001 0.05 paramGroup1 1.0000 0.0000 1
rrcs2_104 none relative 0.0255 0.001 0.05 paramGroup1 1.0000 0.0000 1
rrcs2_105 none relative 0.0255 0.001 0.05 paramGroup1 1.0000 0.0000 1
rrcs2_106 none relative 0.0255 0.001 0.05 paramGroup1 1.0000 0.0000 1
trrcs_100 fixed relative 0.2 0.1 0.3 paramGroup1 1.0000 0.0000 1
trrcs_101 fixed relative 0.2 0.1 0.3 paramGroup1 1.0000 0.0000 1
trrcs_102 fixed relative 0.2 0.1 0.3 paramGroup1 1.0000 0.0000 1
trrcs_103 fixed relative 0.2 0.1 0.3 paramGroup1 1.0000 0.0000 1
trrcs_104 fixed relative 0.2 0.1 0.3 paramGroup1 1.0000 0.0000 1
trrcs_105 fixed relative 0.2 0.1 0.3 paramGroup1 1.0000 0.0000 1
trrcs_106 fixed relative 0.2 0.1 0.3 paramGroup1 1.0000 0.0000 1
mperc1_100 fixed relative 65 30 100 paramGroup1 1.0000 0.0000 1
mperc1_101 fixed relative 65 30 100 paramGroup1 1.0000 0.0000 1
mperc1_102 fixed relative 65 30 100 paramGroup1 1.0000 0.0000 1
mperc1_103 fixed relative 65 30 100 paramGroup1 1.0000 0.0000 1
mperc1_104 fixed relative 65 30 100 paramGroup1 1.0000 0.0000 1
mperc1_105 fixed relative 65 30 100 paramGroup1 1.0000 0.0000 1
mperc1_106 fixed relative 65 30 100 paramGroup1 1.0000 0.0000 1
mperc2_100 fixed relative 65 30 100 paramGroup1 1.0000 0.0000 1
mperc2_101 fixed relative 65 30 100 paramGroup1 1.0000 0.0000 1
mperc2_102 fixed relative 65 30 100 paramGroup1 1.0000 0.0000 1
mperc2_103 fixed relative 65 30 100 paramGroup1 1.0000 0.0000 1
mperc2_104 fixed relative 65 30 100 paramGroup1 1.0000 0.0000 1
mperc2_105 fixed relative 65 30 100 paramGroup1 1.0000 0.0000 1
mperc2_106 fixed relative 65 30 100 paramGroup1 1.0000 0.0000 1
sfrost_100 fixed relative 1.0 1.0 1.0 paramGroup1 1.0000 0.0000 1
sfrost_101 fixed relative 1.0 1.0 1.0 paramGroup1 1.0000 0.0000 1
sfrost_102 fixed relative 1.0 1.0 1.0 paramGroup1 1.0000 0.0000 1
sfrost_103 fixed relative 1.0 1.0 1.0 paramGroup1 1.0000 0.0000 1
sfrost_104 fixed relative 1.0 1.0 1.0 paramGroup1 1.0000 0.0000 1
sfrost_105 fixed relative 1.0 1.0 1.0 paramGroup1 1.0000 0.0000 1
sfrost_106 fixed relative 1.0 1.0 1.0 paramGroup1 1.0000 0.0000 1
macrate_100 fixed relative 0.2 0.1 0.3 paramGroup1 1.0000 0.0000 1
macrate_101 none relative 0.2 0.1 0.3 paramGroup1 1.0000 0.0000 1
macrate_102 none relative 0.2 0.1 0.3 paramGroup1 1.0000 0.0000 1
macrate_103 none relative 0.2 0.1 0.3 paramGroup1 1.0000 0.0000 1
macrate_104 none relative 0.2 0.1 0.3 paramGroup1 1.0000 0.0000 1
macrate_105 none relative 0.2 0.1 0.3 paramGroup1 1.0000 0.0000 1
macrate_106 none relative 0.2 0.1 0.3 paramGroup1 1.0000 0.0000 1
mactrinf_100 fixed relative 30 10 50 paramGroup1 1.0000 0.0000 1
mactrinf_101 none relative 30 10 50 paramGroup1 1.0000 0.0000 1
mactrinf_102 none relative 30 10 50 paramGroup1 1.0000 0.0000 1
mactrinf_103 none relative 30 10 50 paramGroup1 1.0000 0.0000 1
mactrinf_104 none relative 30 10 50 paramGroup1 1.0000 0.0000 1
mactrinf_105 none relative 30 10 50 paramGroup1 1.0000 0.0000 1
mactrinf_106 none relative 30 10 50 paramGroup1 1.0000 0.0000 1
mactrsm_100 fixed relative 0.675 0.5 0.85 paramGroup1 1.0000 0.0000 1
mactrsm_101 fixed relative 0.675 0.5 0.85 paramGroup1 1.0000 0.0000 1
mactrsm_102 fixed relative 0.675 0.5 0.85 paramGroup1 1.0000 0.0000 1
mactrsm_103 fixed relative 0.675 0.5 0.85 paramGroup1 1.0000 0.0000 1
mactrsm_104 fixed relative 0.675 0.5 0.85 paramGroup1 1.0000 0.0000 1
mactrsm_105 fixed relative 0.675 0.5 0.85 paramGroup1 1.0000 0.0000 1
mactrsm_106 fixed relative 0.675 0.5 0.85 paramGroup1 1.0000 0.0000 1
srrate_100 fixed relative 0.15 0.1 0.2 paramGroup1 1.0000 0.0000 1
srrate_101 none relative 0.15 0.1 0.2 paramGroup1 1.0000 0.0000 1
srrate_102 none relative 0.15 0.1 0.2 paramGroup1 1.0000 0.0000 1
srrate_103 none relative 0.15 0.1 0.2 paramGroup1 1.0000 0.0000 1
srrate_104 none relative 0.15 0.1 0.2 paramGroup1 1.0000 0.0000 1
srrate_105 none relative 0.15 0.1 0.2 paramGroup1 1.0000 0.0000 1
srrate_106 none relative 0.15 0.1 0.2 paramGroup1 1.0000 0.0000 1
wcwp_100 fixed relative 0.07 0.04 0.1 paramGroup1 1.0000 0.0000 1
wcwp_101 none relative 0.07 0.04 0.1 paramGroup1 1.0000 0.0000 1
wcwp_102 none relative 0.07 0.04 0.1 paramGroup1 1.0000 0.0000 1
wcwp_103 none relative 0.07 0.04 0.1 paramGroup1 1.0000 0.0000 1
wcwp_104 none relative 0.07 0.04 0.1 paramGroup1 1.0000 0.0000 1
wcwp_105 none relative 0.07 0.04 0.1 paramGroup1 1.0000 0.0000 1
wcwp_106 none relative 0.07 0.04 0.1 paramGroup1 1.0000 0.0000 1
wcfc_100 fixed relative 0.25 0.1 0.4 paramGroup1 1.0000 0.0000 1
wcfc_101 none relative 0.25 0.1 0.4 paramGroup1 1.0000 0.0000 1
wcfc_102 none relative 0.25 0.1 0.5 paramGroup1 1.0000 0.0000 1
wcfc_103 none relative 0.25 0.1 0.4 paramGroup1 1.0000 0.0000 1
wcfc_104 none relative 0.25 0.1 0.4 paramGroup1 1.0000 0.0000 1
wcfc_105 none relative 0.25 0.1 0.4 paramGroup1 1.0000 0.0000 1
wcfc_106 none relative 0.25 0.1 0.4 paramGroup1 1.0000 0.0000 1
wcep_100 fixed relative 0.055 0.01 0.1 paramGroup1 1.0000 0.0000 1
wcep_101 none relative 0.055 0.01 0.1 paramGroup1 1.0000 0.0000 1
wcep_102 none relative 0.055 0.01 0.1 paramGroup1 1.0000 0.0000 1
wcep_103 none relative 0.055 0.01 0.1 paramGroup1 1.0000 0.0000 1
wcep_104 none relative 0.055 0.01 0.35 paramGroup1 1.0000 0.0000 1
wcep_105 none relative 0.055 0.01 0.35 paramGroup1 1.0000 0.0000 1
wcep_106 none relative 0.055 0.01 0.1 paramGroup1 1.0000 0.0000 1
* observation groups
warmup_obs
calib_obs
valid_obs
* observation data
o14613 0.0 0.0 warmup_obs
o14614 0.0 0.0 warmup_obs
o14615 0.0 0.0 warmup_obs
o14616 0.0 0.0 warmup_obs
o14617 0.0 0.0 warmup_obs
o14618 0.0 0.0 warmup_obs
o14619 0.0 0.0 warmup_obs
o14620 0.0 0.0 warmup_obs
o14621 0.0 0.0 warmup_obs
o14622 0.0 0.0 warmup_obs
o14623 0.0 0.0 warmup_obs
o14624 0.0 0.0 warmup_obs
o14625 0.0 0.0 warmup_obs
o14626 0.0 0.0 warmup_obs
o14627 0.0 0.0 warmup_obs
o14628 0.0 0.0 warmup_obs
o14629 0.0 0.0 warmup_obs
o14630 0.0 0.0 warmup_obs
o14631 0.0 0.0 warmup_obs
o14632 0.0 0.0 warmup_obs
o14633 0.0 0.0 warmup_obs
o14634 0.0 0.0 warmup_obs
o14635 0.0 0.0 warmup_obs
o14636 0.0 0.0 warmup_obs
o14637 0.0 0.0 warmup_obs
o14638 0.0 0.0 warmup_obs
o14639 0.0 0.0 warmup_obs
o14640 0.0 0.0 warmup_obs
o14641 0.0 0.0 warmup_obs
o14642 0.0 0.0 warmup_obs
o14643 0.0 0.0 warmup_obs
o14644 0.0 0.0 warmup_obs
o14645 0.0 0.0 warmup_obs
o14646 0.0 0.0 warmup_obs
o14647 0.0 0.0 warmup_obs
o14648 0.0 0.0 warmup_obs
o14649 0.0 0.0 warmup_obs
o14650 0.0 0.0 warmup_obs
o14651 0.0 0.0 warmup_obs
o14652 0.0 0.0 warmup_obs
o14653 0.0 0.0 warmup_obs
o14654 0.0 0.0 warmup_obs
o14655 0.0 0.0 warmup_obs
o14656 0.0 0.0 warmup_obs
o14657 0.0 0.0 warmup_obs
o14658 0.0 0.0 warmup_obs
o14659 0.0 0.0 warmup_obs
o14660 0.0 0.0 warmup_obs
o14661 0.0 0.0 warmup_obs
o14662 0.0 0.0 warmup_obs
o14663 0.0 0.0 warmup_obs
o14664 0.0 0.0 warmup_obs
o14665 0.0 0.0 warmup_obs
o14666 0.0 0.0 warmup_obs
o14667 0.0 0.0 warmup_obs
o14668 0.0 0.0 warmup_obs
o14669 0.0 0.0 warmup_obs
o14670 0.0 0.0 warmup_obs
o14671 0.0 0.0 warmup_obs
o14672 0.0 0.0 warmup_obs
o14673 0.0 0.0 warmup_obs
o14674 0.0 0.0 warmup_obs
o14675 0.0 0.0 warmup_obs
o14676 0.0 0.0 warmup_obs
o14677 0.0 0.0 warmup_obs
o14678 0.0 0.0 warmup_obs
o14679 0.0 0.0 warmup_obs
o14680 0.0 0.0 warmup_obs
o14681 0.0 0.0 warmup_obs
o14682 0.0 0.0 warmup_obs
o14683 0.0 0.0 warmup_obs
o14684 0.0 0.0 warmup_obs
o14685 0.0 0.0 warmup_obs
o14686 0.0 0.0 warmup_obs
o14687 0.0 0.0 warmup_obs
o14688 0.0 0.0 warmup_obs
o14689 0.0 0.0 warmup_obs
o14690 0.0 0.0 warmup_obs
o14691 0.0 0.0 warmup_obs
o14692 0.0 0.0 warmup_obs
o14693 0.0 0.0 warmup_obs
o14694 0.0 0.0 warmup_obs
o14695 0.0 0.0 warmup_obs
o14696 0.0 0.0 warmup_obs
o14697 0.0 0.0 warmup_obs
o14698 0.0 0.0 warmup_obs
o14699 0.0 0.0 warmup_obs
o14700 0.0 0.0 warmup_obs
o14701 0.0 0.0 warmup_obs
o14702 0.0 0.0 warmup_obs
o14703 0.0 0.0 warmup_obs
o14704 0.0 0.0 warmup_obs
o14705 0.0 0.0 warmup_obs
o14706 0.0 0.0 warmup_obs
o14707 0.0 0.0 warmup_obs
o14708 0.0 0.0 warmup_obs
o14709 0.0 0.0 warmup_obs
o14710 0.0 0.0 warmup_obs
o14711 0.0 0.0 warmup_obs
o14712 0.0 0.0 warmup_obs
o14713 0.0 0.0 warmup_obs
o14714 0.0 0.0 warmup_obs
o14715 0.0 0.0 warmup_obs
o14716 0.0 0.0 warmup_obs
o14717 0.0 0.0 warmup_obs
o14718 0.0 0.0 warmup_obs
o14719 0.0 0.0 warmup_obs
o14720 0.0 0.0 warmup_obs
o14721 0.0 0.0 warmup_obs
o14722 0.0 0.0 warmup_obs
o14723 0.0 0.0 warmup_obs
o14724 0.0 0.0 warmup_obs
o14725 0.0 0.0 warmup_obs
o14726 0.0 0.0 warmup_obs
o14727 0.0 0.0 warmup_obs
o14728 0.0 0.0 warmup_obs
o14729 0.0 0.0 warmup_obs
o14730 0.0 0.0 warmup_obs
o14731 0.0 0.0 warmup_obs
o14732 0.0 0.0 warmup_obs
o14733 0.0 0.0 warmup_obs
o14734 0.0 0.0 warmup_obs
o14735 0.0 0.0 warmup_obs
o14736 0.0 0.0 warmup_obs
o14737 0.0 0.0 warmup_obs
o14738 0.0 0.0 warmup_obs
o14739 0.0 0.0 warmup_obs
o14740 0.0 0.0 warmup_obs
o14741 0.0 0.0 warmup_obs
o14742 0.0 0.0 warmup_obs
o14743 0.0 0.0 warmup_obs
o14744 0.0 0.0 warmup_obs
o14745 0.0 0.0 warmup_obs
o14746 0.0 0.0 warmup_obs
o14747 0.0 0.0 warmup_obs
o14748 0.0 0.0 warmup_obs
o14749 0.0 0.0 warmup_obs
o14750 0.0 0.0 warmup_obs
o14751 0.0 0.0 warmup_obs
o14752 0.0 0.0 warmup_obs
o14753 0.0 0.0 warmup_obs
o14754 0.0 0.0 warmup_obs
o14755 0.0 0.0 warmup_obs
o14756 0.0 0.0 warmup_obs
o14757 0.0 0.0 warmup_obs
o14758 0.0 0.0 warmup_obs
o14759 0.0 0.0 warmup_obs
o14760 0.0 0.0 warmup_obs
o14761 0.0 0.0 warmup_obs
o14762 0.0 0.0 warmup_obs
o14763 0.0 0.0 warmup_obs
o14764 0.0 0.0 warmup_obs
o14765 0.0 0.0 warmup_obs
o14766 0.0 0.0 warmup_obs
o14767 0.0 0.0 warmup_obs
o14768 0.0 0.0 warmup_obs
o14769 0.0 0.0 warmup_obs
o14770 0.0 0.0 warmup_obs
o14771 0.0 0.0 warmup_obs
o14772 0.0 0.0 warmup_obs
o14773 0.0 0.0 warmup_obs
o14774 0.0 0.0 warmup_obs
o14775 0.0 0.0 warmup_obs
o14776 0.0 0.0 warmup_obs
o14777 0.0 0.0 warmup_obs
o14778 0.0 0.0 warmup_obs
o14779 0.0 0.0 warmup_obs
o14780 0.0 0.0 warmup_obs
o14781 0.0 0.0 warmup_obs
o14782 0.0 0.0 warmup_obs
o14783 0.0 0.0 warmup_obs
o14784 0.0 0.0 warmup_obs
o14785 0.0 0.0 warmup_obs
o14786 0.0 0.0 warmup_obs
o14787 0.0 0.0 warmup_obs
o14788 0.0 0.0 warmup_obs
o14789 0.0 0.0 warmup_obs
o14790 0.0 0.0 warmup_obs
o14791 0.0 0.0 warmup_obs
o14792 0.0 0.0 warmup_obs
o14793 0.0 0.0 warmup_obs
o14794 0.0 0.0 warmup_obs
o14795 0.0 0.0 warmup_obs
o14796 0.0 0.0 warmup_obs
o14797 0.0 0.0 warmup_obs
o14798 0.0 0.0 warmup_obs
o14799 0.0 0.0 warmup_obs
o14800 0.0 0.0 warmup_obs
o14801 0.0 0.0 warmup_obs
o14802 0.0 0.0 warmup_obs
o14803 0.0 0.0 warmup_obs
o14804 0.0 0.0 warmup_obs
o14805 0.0 0.0 warmup_obs
o14806 0.0 0.0 warmup_obs
o14807 0.0 0.0 warmup_obs
o14808 0.0 0.0 warmup_obs
o14809 0.0 0.0 warmup_obs
o14810 0.0 0.0 warmup_obs
o14811 0.0 0.0 warmup_obs
o14812 0.0 0.0 warmup_obs
o14813 0.0 0.0 warmup_obs
o14814 0.0 0.0 warmup_obs
o14815 0.0 0.0 warmup_obs
o14816 0.0 0.0 warmup_obs
o14817 0.0 0.0 warmup_obs
o14818 0.0 0.0 warmup_obs
o14819 0.0 0.0 warmup_obs
o14820 0.0 0.0 warmup_obs
o14821 0.0 0.0 warmup_obs
o14822 0.0 0.0 warmup_obs
o14823 0.0 0.0 warmup_obs
o14824 0.0 0.0 warmup_obs
o14825 0.0 0.0 warmup_obs
o14826 0.0 0.0 warmup_obs
o14827 0.0 0.0 warmup_obs
o14828 0.0 0.0 warmup_obs
o14829 0.0 0.0 warmup_obs
o14830 0.0 0.0 warmup_obs
o14831 0.0 0.0 warmup_obs
o14832 0.0 0.0 warmup_obs
o14833 0.0 0.0 warmup_obs
o14834 0.0 0.0 warmup_obs
o14835 0.0 0.0 warmup_obs
o14836 0.0 0.0 warmup_obs
o14837 0.0 0.0 warmup_obs
o14838 0.0 0.0 warmup_obs
o14839 0.0 0.0 warmup_obs
o14840 0.0 0.0 warmup_obs
o14841 0.0 0.0 warmup_obs
o14842 0.0 0.0 warmup_obs
o14843 0.0 0.0 warmup_obs
o14844 0.0 0.0 warmup_obs
o14845 0.0 0.0 warmup_obs
o14846 0.0 0.0 warmup_obs
o14847 0.0 0.0 warmup_obs
o14848 0.0 0.0 warmup_obs
o14849 0.0 0.0 warmup_obs
o14850 0.0 0.0 warmup_obs
o14851 0.0 0.0 warmup_obs
o14852 0.0 0.0 warmup_obs
o14853 0.0 0.0 warmup_obs
o14854 0.0 0.0 warmup_obs
o14855 0.0 0.0 warmup_obs
o14856 0.0 0.0 warmup_obs
o14857 0.0 0.0 warmup_obs
o14858 0.0 0.0 warmup_obs
o14859 0.0 0.0 warmup_obs
o14860 0.0 0.0 warmup_obs
o14861 0.0 0.0 warmup_obs
o14862 0.0 0.0 warmup_obs
o14863 0.0 0.0 warmup_obs
o14864 0.0 0.0 warmup_obs
o14865 0.0 0.0 warmup_obs
o14866 0.0 0.0 warmup_obs
o14867 0.0 0.0 warmup_obs
o14868 0.0 0.0 warmup_obs
o14869 0.0 0.0 warmup_obs
o14870 0.0 0.0 warmup_obs
o14871 0.0 0.0 warmup_obs
o14872 0.0 0.0 warmup_obs
o14873 0.0 0.0 warmup_obs
o14874 0.0 0.0 warmup_obs
o14875 0.0 0.0 warmup_obs
o14876 0.0 0.0 warmup_obs
o14877 0.0 0.0 warmup_obs
o14878 0.0 0.0 warmup_obs
o14879 0.0 0.0 warmup_obs
o14880 0.0 0.0 warmup_obs
o14881 0.0 0.0 warmup_obs
o14882 0.0 0.0 warmup_obs
o14883 0.0 0.0 warmup_obs
o14884 0.0 0.0 warmup_obs
o14885 0.0 0.0 warmup_obs
o14886 0.0 0.0 warmup_obs
o14887 0.0 0.0 warmup_obs
o14888 0.0 0.0 warmup_obs
o14889 0.0 0.0 warmup_obs
o14890 0.0 0.0 warmup_obs
o14891 0.0 0.0 warmup_obs
o14892 0.0 0.0 warmup_obs
o14893 0.0 0.0 warmup_obs
o14894 0.0 0.0 warmup_obs
o14895 0.0 0.0 warmup_obs
o14896 0.0 0.0 warmup_obs
o14897 0.0 0.0 warmup_obs
o14898 0.0 0.0 warmup_obs
o14899 0.0 0.0 warmup_obs
o14900 0.0 0.0 warmup_obs
o14901 0.0 0.0 warmup_obs
o14902 0.0 0.0 warmup_obs
o14903 0.0 0.0 warmup_obs
o14904 0.0 0.0 warmup_obs
o14905 0.0 0.0 warmup_obs
o14906 0.0 0.0 warmup_obs
o14907 0.0 0.0 warmup_obs
o14908 0.0 0.0 warmup_obs
o14909 0.0 0.0 warmup_obs
o14910 0.0 0.0 warmup_obs
o14911 0.0 0.0 warmup_obs
o14912 0.0 0.0 warmup_obs
o14913 0.0 0.0 warmup_obs
o14914 0.0 0.0 warmup_obs
o14915 0.0 0.0 warmup_obs
o14916 0.0 0.0 warmup_obs
o14917 0.0 0.0 warmup_obs
o14918 0.0 0.0 warmup_obs
o14919 0.0 0.0 warmup_obs
o14920 0.0 0.0 warmup_obs
o14921 0.0 0.0 warmup_obs
o14922 0.0 0.0 warmup_obs
o14923 0.0 0.0 warmup_obs
o14924 0.0 0.0 warmup_obs
o14925 0.0 0.0 warmup_obs
o14926 0.0 0.0 warmup_obs
o14927 0.0 0.0 warmup_obs
o14928 0.0 0.0 warmup_obs
o14929 0.0 0.0 warmup_obs
o14930 0.0 0.0 warmup_obs
o14931 0.0 0.0 warmup_obs
o14932 0.0 0.0 warmup_obs
o14933 0.0 0.0 warmup_obs
o14934 0.0 0.0 warmup_obs
o14935 0.0 0.0 warmup_obs
o14936 0.0 0.0 warmup_obs
o14937 0.0 0.0 warmup_obs
o14938 0.0 0.0 warmup_obs
o14939 0.0 0.0 warmup_obs
o14940 0.0 0.0 warmup_obs
o14941 0.0 0.0 warmup_obs
o14942 0.0 0.0 warmup_obs
o14943 0.0 0.0 warmup_obs
o14944 0.0 0.0 warmup_obs
o14945 0.0 0.0 warmup_obs
o14946 0.0 0.0 warmup_obs
o14947 0.0 0.0 warmup_obs
o14948 0.0 0.0 warmup_obs
o14949 0.0 0.0 warmup_obs
o14950 0.0 0.0 warmup_obs
o14951 0.0 0.0 warmup_obs
o14952 0.0 0.0 warmup_obs
o14953 0.0 0.0 warmup_obs
o14954 0.0 0.0 warmup_obs
o14955 0.0 0.0 warmup_obs
o14956 0.0 0.0 warmup_obs
o14957 0.0 0.0 warmup_obs
o14958 0.0 0.0 warmup_obs
o14959 0.0 0.0 warmup_obs
o14960 0.0 0.0 warmup_obs
o14961 0.0 0.0 warmup_obs
o14962 0.0 0.0 warmup_obs
o14963 0.0 0.0 warmup_obs
o14964 0.0 0.0 warmup_obs
o14965 0.0 0.0 warmup_obs
o14966 0.0 0.0 warmup_obs
o14967 0.0 0.0 warmup_obs
o14968 0.0 0.0 warmup_obs
o14969 0.0 0.0 warmup_obs
o14970 0.0 0.0 warmup_obs
o14971 0.0 0.0 warmup_obs
o14972 0.0 0.0 warmup_obs
o14973 0.0 0.0 warmup_obs
o14974 0.0 0.0 warmup_obs
o14975 0.0 0.0 warmup_obs
o14976 0.0 0.0 warmup_obs
o14977 0.0 0.0 warmup_obs
o14978 0.0 0.0 warmup_obs
o14979 4.75 0.619375 calib_obs
o14980 4.25 0.619375 calib_obs
o14981 2.8 0.619375 calib_obs
o14982 2.2 0.619375 calib_obs
o14983 2.95 0.619375 calib_obs
o14984 2.95 0.619375 calib_obs
o14985 1.6 0.619375 calib_obs
o14986 1.2 0.619375 calib_obs
o14987 1.1 0.619375 calib_obs
o14988 1.2 0.619375 calib_obs
o14989 1.3 0.619375 calib_obs
o14990 1.3 0.619375 calib_obs
o14991 1.4 0.619375 calib_obs
o14992 1.3 0.619375 calib_obs
o14993 1.3 0.619375 calib_obs
o14994 1.2 0.619375 calib_obs
o14995 1.2 0.619375 calib_obs
o14996 1.2 0.619375 calib_obs
o14997 1.1 0.619375 calib_obs
o14998 1.2 0.619375 calib_obs
o14999 1.1 0.619375 calib_obs
o15000 1.1 0.619375 calib_obs
o15001 1.0 0.619375 calib_obs
o15002 1.0 0.619375 calib_obs
o15003 1.0 0.619375 calib_obs
o15004 1.0 0.619375 calib_obs
o15005 1.0 0.619375 calib_obs
o15006 1.0 0.619375 calib_obs
o15007 1.0 0.619375 calib_obs
o15008 1.1 0.619375 calib_obs
o15009 1.1 0.619375 calib_obs
o15010 1.1 0.619375 calib_obs
o15011 1.0 0.619375 calib_obs
o15012 1.0 0.619375 calib_obs
o15013 1.0 0.619375 calib_obs
o15014 1.0 0.619375 calib_obs
o15015 1.0 0.619375 calib_obs
o15016 0.9 1.858125 calib_obs
o15017 0.82 1.858125 calib_obs
o15018 0.82 1.858125 calib_obs
o15019 0.74 1.858125 calib_obs
o15020 0.66 1.858125 calib_obs
o15021 0.6 1.858125 calib_obs
o15022 0.6 1.858125 calib_obs
o15023 0.6 1.858125 calib_obs
o15024 0.66 1.858125 calib_obs
o15025 0.66 1.858125 calib_obs
o15026 0.66 1.858125 calib_obs
o15027 0.74 1.858125 calib_obs
o15028 0.82 1.858125 calib_obs
o15029 2.35 0.619375 calib_obs
o15030 1.8 0.619375 calib_obs
o15031 1.3 0.619375 calib_obs
o15032 1.2 0.619375 calib_obs
o15033 1.0 0.619375 calib_obs
o15034 0.9 1.858125 calib_obs
o15035 0.82 1.858125 calib_obs
o15036 0.82 1.858125 calib_obs
o15037 0.74 1.858125 calib_obs
o15038 1.1 0.619375 calib_obs
o15039 3.15 0.619375 calib_obs
o15040 10.2 0.619375 calib_obs
o15041 7.2 0.619375 calib_obs
o15042 3.35 0.619375 calib_obs
o15043 2.2 0.619375 calib_obs
o15044 1.6 0.619375 calib_obs
o15045 1.4 0.619375 calib_obs
o15046 1.2 0.619375 calib_obs
o15047 1.2 0.619375 calib_obs
o15048 1.2 0.619375 calib_obs
o15049 1.3 0.619375 calib_obs
o15050 1.5 0.619375 calib_obs
o15051 2.5 0.619375 calib_obs
o15052 4.0 0.619375 calib_obs
o15053 12.6 0.619375 calib_obs
o15054 11.0 0.619375 calib_obs
o15055 10.2 0.619375 calib_obs
o15056 8.4 0.619375 calib_obs
o15057 7.2 0.619375 calib_obs
o15058 7.5 0.619375 calib_obs
o15059 13.8 0.619375 calib_obs
o15060 17.8 0.619375 calib_obs
o15061 12.2 0.619375 calib_obs
o15062 7.5 0.619375 calib_obs
o15063 5.75 0.619375 calib_obs
o15064 7.8 0.619375 calib_obs
o15065 10.6 0.619375 calib_obs
o15066 7.5 0.619375 calib_obs
o15067 4.75 0.619375 calib_obs
o15068 3.75 0.619375 calib_obs
o15069 3.15 0.619375 calib_obs
o15070 4.0 0.619375 calib_obs
o15071 7.8 0.619375 calib_obs
o15072 8.7 0.619375 calib_obs
o15073 9.8 0.619375 calib_obs
o15074 10.2 0.619375 calib_obs
o15075 10.2 0.619375 calib_obs
o15076 9.8 0.619375 calib_obs
o15077 9.0 0.619375 calib_obs
o15078 8.7 0.619375 calib_obs
o15079 11.0 0.619375 calib_obs
o15080 11.0 0.619375 calib_obs
o15081 8.1 0.619375 calib_obs
o15082 5.75 0.619375 calib_obs
o15083 4.25 0.619375 calib_obs
o15084 3.35 0.619375 calib_obs
o15085 2.8 0.619375 calib_obs
o15086 2.65 0.619375 calib_obs
o15087 2.2 0.619375 calib_obs
o15088 2.05 0.619375 calib_obs
o15089 2.35 0.619375 calib_obs
o15090 5.02 0.619375 calib_obs
o15091 5.6 0.619375 calib_obs
o15092 4.43 0.619375 calib_obs
o15093 3.81 0.619375 calib_obs
o15094 4.67 0.619375 calib_obs
o15095 5.93 0.619375 calib_obs
o15096 5.34 0.619375 calib_obs
o15097 4.36 0.619375 calib_obs
o15098 5.83 0.619375 calib_obs
o15099 14.48 0.619375 calib_obs
o15100 10.87 0.619375 calib_obs
o15101 6.81 0.619375 calib_obs
o15102 5.01 0.619375 calib_obs
o15103 3.95 0.619375 calib_obs
o15104 3.39 0.619375 calib_obs
o15105 3.03 0.619375 calib_obs
o15106 2.69 0.619375 calib_obs
o15107 2.36 0.619375 calib_obs
o15108 2.13 0.619375 calib_obs
o15109 1.95 0.619375 calib_obs
o15110 1.83 0.619375 calib_obs
o15111 1.74 0.619375 calib_obs
o15112 1.65 0.619375 calib_obs
o15113 1.59 0.619375 calib_obs
o15114 1.54 0.619375 calib_obs
o15115 1.48 0.619375 calib_obs
o15116 1.45 0.619375 calib_obs
o15117 1.43 0.619375 calib_obs
o15118 1.42 0.619375 calib_obs
o15119 1.35 0.619375 calib_obs
o15120 1.28 0.619375 calib_obs
o15121 1.22 0.619375 calib_obs
o15122 1.15 0.619375 calib_obs
o15123 1.1 0.619375 calib_obs
o15124 1.04 0.619375 calib_obs
o15125 0.98 0.619375 calib_obs
o15126 0.92 0.619375 calib_obs
o15127 0.89 1.858125 calib_obs
o15128 0.85 1.858125 calib_obs
o15129 0.89 1.858125 calib_obs
o15130 0.94 0.619375 calib_obs
o15131 1.07 0.619375 calib_obs
o15132 1.07 0.619375 calib_obs
o15133 1.0 0.619375 calib_obs
o15134 0.9 1.858125 calib_obs
o15135 0.88 1.858125 calib_obs
o15136 0.83 1.858125 calib_obs
o15137 0.8 1.858125 calib_obs
o15138 1.0 0.619375 calib_obs
o15139 1.14 0.619375 calib_obs
o15140 1.12 0.619375 calib_obs
o15141 1.06 0.619375 calib_obs
o15142 1.45 0.619375 calib_obs
o15143 3.68 0.619375 calib_obs
o15144 2.76 0.619375 calib_obs
o15145 1.9 0.619375 calib_obs
o15146 1.48 0.619375 calib_obs
o15147 1.22 0.619375 calib_obs
o15148 1.04 0.619375 calib_obs
o15149 0.96 0.619375 calib_obs
o15150 0.96 0.619375 calib_obs
o15151 0.91 0.619375 calib_obs
o15152 0.93 0.619375 calib_obs
o15153 0.9 1.858125 calib_obs
o15154 0.86 1.858125 calib_obs
o15155 0.79 1.858125 calib_obs
o15156 0.81 1.858125 calib_obs
o15157 0.95 0.619375 calib_obs
o15158 1.03 0.619375 calib_obs
o15159 1.09 0.619375 calib_obs
o15160 0.91 0.619375 calib_obs
o15161 0.75 1.858125 calib_obs
o15162 0.66 1.858125 calib_obs
o15163 0.6 1.858125 calib_obs
o15164 0.58 1.858125 calib_obs
o15165 0.56 1.858125 calib_obs
o15166 0.53 1.858125 calib_obs
o15167 0.51 1.858125 calib_obs
o15168 0.49 1.858125 calib_obs
o15169 0.47 1.858125 calib_obs
o15170 0.46 1.858125 calib_obs
o15171 0.5 1.858125 calib_obs
o15172 0.5 1.858125 calib_obs
o15173 0.57 1.858125 calib_obs
o15174 0.58 1.858125 calib_obs
o15175 0.61 1.858125 calib_obs
o15176 0.61 1.858125 calib_obs
o15177 0.58 1.858125 calib_obs
o15178 0.54 1.858125 calib_obs
o15179 0.51 1.858125 calib_obs
o15180 0.51 1.858125 calib_obs
o15181 0.64 1.858125 calib_obs
o15182 0.53 1.858125 calib_obs
o15183 0.49 1.858125 calib_obs
o15184 0.49 1.858125 calib_obs
o15185 0.49 1.858125 calib_obs
o15186 0.47 1.858125 calib_obs
o15187 0.46 1.858125 calib_obs
o15188 0.44 1.858125 calib_obs
o15189 0.42 1.858125 calib_obs
o15190 0.41 1.858125 calib_obs
o15191 0.41 1.858125 calib_obs
o15192 0.45 1.858125 calib_obs
o15193 0.51 1.858125 calib_obs
o15194 0.69 1.858125 calib_obs
o15195 1.36 0.619375 calib_obs
o15196 1.45 0.619375 calib_obs
o15197 1.93 0.619375 calib_obs
o15198 2.51 0.619375 calib_obs
o15199 2.49 0.619375 calib_obs
o15200 1.66 0.619375 calib_obs
o15201 1.21 0.619375 calib_obs
o15202 1.03 0.619375 calib_obs
o15203 3.36 0.619375 calib_obs
o15204 3.37 0.619375 calib_obs
o15205 2.78 0.619375 calib_obs
o15206 1.84 0.619375 calib_obs
o15207 1.4 0.619375 calib_obs
o15208 1.16 0.619375 calib_obs
o15209 1.0 0.619375 calib_obs
o15210 0.89 1.858125 calib_obs
o15211 0.82 1.858125 calib_obs
o15212 0.84 1.858125 calib_obs
o15213 0.91 0.619375 calib_obs
o15214 0.87 1.858125 calib_obs
o15215 0.77 1.858125 calib_obs
o15216 0.7 1.858125 calib_obs
o15217 0.66 1.858125 calib_obs
o15218 0.61 1.858125 calib_obs
o15219 0.57 1.858125 calib_obs
o15220 0.55 1.858125 calib_obs
o15221 0.54 1.858125 calib_obs
o15222 0.55 1.858125 calib_obs
o15223 0.55 1.858125 calib_obs
o15224 0.54 1.858125 calib_obs
o15225 0.52 1.858125 calib_obs
o15226 0.5 1.858125 calib_obs
o15227 0.49 1.858125 calib_obs
o15228 0.48 1.858125 calib_obs
o15229 0.49 1.858125 calib_obs
o15230 0.55 1.858125 calib_obs
o15231 0.97 0.619375 calib_obs
o15232 1.66 0.619375 calib_obs
o15233 3.81 0.619375 calib_obs
o15234 7.34 0.619375 calib_obs
o15235 7.85 0.619375 calib_obs
o15236 16.98 0.619375 calib_obs
o15237 17.98 0.619375 calib_obs
o15238 11.05 0.619375 calib_obs
o15239 6.56 0.619375 calib_obs
o15240 4.35 0.619375 calib_obs
o15241 3.12 0.619375 calib_obs
o15242 2.54 0.619375 calib_obs
o15243 2.22 0.619375 calib_obs
o15244 2.07 0.619375 calib_obs
o15245 2.0 0.619375 calib_obs
o15246 1.85 0.619375 calib_obs
o15247 1.67 0.619375 calib_obs
o15248 1.52 0.619375 calib_obs
o15249 1.41 0.619375 calib_obs
o15250 1.33 0.619375 calib_obs
o15251 1.27 0.619375 calib_obs
o15252 1.22 0.619375 calib_obs
o15253 1.18 0.619375 calib_obs
o15254 1.32 0.619375 calib_obs
o15255 3.91 0.619375 calib_obs
o15256 12.13 0.619375 calib_obs
o15257 11.16 0.619375 calib_obs
o15258 9.0 0.619375 calib_obs
o15259 9.55 0.619375 calib_obs
o15260 27.83 0.619375 calib_obs
o15261 40.57 0.619375 calib_obs
o15262 45.62 0.619375 calib_obs
o15263 45.25 0.619375 calib_obs
o15264 34.42 0.619375 calib_obs
o15265 26.36 0.619375 calib_obs
o15266 18.93 0.619375 calib_obs
o15267 15.4 0.619375 calib_obs
o15268 12.6 0.619375 calib_obs
o15269 12.6 0.619375 calib_obs
o15270 15.0 0.619375 calib_obs
o15271 10.6 0.619375 calib_obs
o15272 7.8 0.619375 calib_obs
o15273 6.0 0.619375 calib_obs
o15274 5.25 0.619375 calib_obs
o15275 4.25 0.619375 calib_obs
o15276 3.75 0.619375 calib_obs
o15277 3.35 0.619375 calib_obs
o15278 3.15 0.619375 calib_obs
o15279 3.15 0.619375 calib_obs
o15280 20.2 0.619375 calib_obs
o15281 33.2 0.619375 calib_obs
o15282 21.0 0.619375 calib_obs
o15283 13.0 0.619375 calib_obs
o15284 7.8 0.619375 calib_obs
o15285 5.5 0.619375 calib_obs
o15286 5.0 0.619375 calib_obs
o15287 4.75 0.619375 calib_obs
o15288 6.0 0.619375 calib_obs
o15289 7.8 0.619375 calib_obs
o15290 6.6 0.619375 calib_obs
o15291 5.0 0.619375 calib_obs
o15292 6.0 0.619375 calib_obs
o15293 12.6 0.619375 calib_obs
o15294 34.4 0.619375 calib_obs
o15295 47.6 0.619375 calib_obs
o15296 28.4 0.619375 calib_obs
o15297 15.8 0.619375 calib_obs
o15298 11.8 0.619375 calib_obs
o15299 10.6 0.619375 calib_obs
o15300 12.6 0.619375 calib_obs
o15301 17.4 0.619375 calib_obs
o15302 19.0 0.619375 calib_obs
o15303 15.0 0.619375 calib_obs
o15304 11.0 0.619375 calib_obs
o15305 8.7 0.619375 calib_obs
o15306 11.4 0.619375 calib_obs
o15307 34.4 0.619375 calib_obs
o15308 39.8 0.619375 calib_obs
o15309 29.0 0.619375 calib_obs
o15310 25.0 0.619375 calib_obs
o15311 21.0 0.619375 calib_obs
o15312 20.6 0.619375 calib_obs
o15313 20.6 0.619375 calib_obs
o15314 16.2 0.619375 calib_obs
o15315 16.6 0.619375 calib_obs
o15316 31.4 0.619375 calib_obs
o15317 24.5 0.619375 calib_obs
o15318 14.2 0.619375 calib_obs
o15319 9.0 0.619375 calib_obs
o15320 11.8 0.619375 calib_obs
o15321 28.4 0.619375 calib_obs
o15322 26.6 0.619375 calib_obs
o15323 16.6 0.619375 calib_obs
o15324 11.0 0.619375 calib_obs