pcf
* control data
restart estimation
146 3653 2 0 3
1 1 double point 1 0 0
10.0 5.0 0.5 0.005 20
5.0 5.0 0.005 0
0.01
50 0.01 8 8 0.01 8
1 1 1
* parameter groups
paramGroup1 relative 0.01 0.001 switch 2.0 parabolic
paramGroup2 absolute 0.05 0.001 switch 2.0 parabolic
* parameter data
ttpi none relative 1.0 0.0 2.0 paramGroup1 1.0000 0.0000 1
lp none relative 0.9 0.8 1.0 paramGroup1 1.0000 0.0000 1
cevpam fixed relative 0.5 0.5 0.5 paramGroup1 1.0000 0.0000 1
cevpph fixed relative 45 45 45 paramGroup1 1.0000 0.0000 1
rrcs3 fixed relative 0.0002 0.0002 0.0002 paramGroup1 1.0000 0.0000 1
damp none relative 0.255 0.01 0.95 paramGroup1 1.0000 0.0000 1
rivvel none relative 0.75 0.3 1 paramGroup1 1.0000 0.0000 1
tcalt fixed relative 0.6 0.6 0.6 paramGroup1 1.0000 0.0000 1
qmean fixed relative 25 25 25 paramGroup1 1.0000 0.0000 1
epotdist fixed relative 3 3 3 paramGroup1 1.0000 0.0000 1
gldepi none relative 3.0 1.0 10.0 paramGroup1 1.0000 0.0000 1
gratp none relative 2.25 2 2.5 paramGroup1 1.0000 0.0000 1
gratk none relative 1.0 0.05 2.0 paramGroup1 1.0000 0.0000 1
sdnsnew fixed relative 0.145 0.1 0.19 paramGroup1 1.0000 0.0000 1
snowdensdt fixed relative 0.0014 0.0014 0.0014 paramGroup1 1.0000 0.0000 1
ttmp_10 fixed relative 1.0 0.0 2.0 paramGroup1 1.0000 0.0000 1
ttmp_11 none relative 1.0 0.0 2.0 paramGroup1 1.0000 0.0000 1
ttmp_12 fixed relative 1.0 0.0 2.0 paramGroup1 1.0000 0.0000 1
ttmp_13 none relative 1.0 0.0 2.0 paramGroup1 1.0000 0.0000 1
ttmp_14 none relative 1.0 -1.0 2.0 paramGroup2 1.0000 0.0000 1
ttmp_15 none relative 1.0 0.0 2.0 paramGroup1 1.0000 0.0000 1
ttmp_16 none relative 1.0 0.0 2.0 paramGroup1 1.0000 0.0000 1
ttmp_17 none relative 1.0 -2.0 2.0 paramGroup2 1.0000 0.0000 1
cmlt_10 fixed relative 2.6 0.2 5.0 paramGroup1 1.0000 0.0000 1
cmlt_11 none relative 2.6 0.2 8.0 paramGroup1 1.0000 0.0000 1
cmlt_12 fixed relative 2.6 0.2 5.0 paramGroup1 1.0000 0.0000 1
cmlt_13 none relative 2.6 0.2 5.0 paramGroup1 1.0000 0.0000 1
cmlt_14 none relative 2.6 0.2 5.0 paramGroup1 1.0000 0.0000 1
cmlt_15 none relative 2.6 0.2 5.0 paramGroup1 1.0000 0.0000 1
cmlt_16 none relative 2.6 0.2 5.0 paramGroup1 1.0000 0.0000 1
cmlt_17 none relative 2.6 0.2 8.0 paramGroup1 1.0000 0.0000 1
cevp_10 fixed relative 0.15 0.1 0.2 paramGroup1 1.0000 0.0000 1
cevp_11 none relative 0.15 0.1 0.2 paramGroup1 1.0000 0.0000 1
cevp_12 fixed relative 0.15 0.1 0.2 paramGroup1 1.0000 0.0000 1
cevp_13 none relative 0.15 0.1 0.2 paramGroup1 1.0000 0.0000 1
cevp_14 none relative 0.15 0.1 0.2 paramGroup1 1.0000 0.0000 1
cevp_15 none relative 0.15 0.1 0.2 paramGroup1 1.0000 0.0000 1
cevp_16 none relative 0.15 0.1 0.2 paramGroup1 1.0000 0.0000 1
cevp_17 none relative 0.15 0.1 0.2 paramGroup1 1.0000 0.0000 1
srrcs_10 fixed relative 0.15 0.1 0.2 paramGroup1 1.0000 0.0000 1
srrcs_11 none relative 0.15 0.1 0.2 paramGroup1 1.0000 0.0000 1
srrcs_12 fixed relative 0.15 0.1 0.2 paramGroup1 1.0000 0.0000 1
srrcs_13 none relative 0.15 0.1 0.2 paramGroup1 1.0000 0.0000 1
srrcs_14 none relative 0.15 0.1 0.2 paramGroup1 1.0000 0.0000 1
srrcs_15 none relative 0.15 0.1 0.2 paramGroup1 1.0000 0.0000 1
srrcs_16 none relative 0.15 0.1 0.2 paramGroup1 1.0000 0.0000 1
srrcs_17 none relative 0.15 0.1 0.2 paramGroup1 1.0000 0.0000 1
frost_10 fixed relative 2.0 2.0 2.0 paramGroup1 1.0000 0.0000 1
frost_11 fixed relative 2.0 2.0 2.0 paramGroup1 1.0000 0.0000 1
frost_12 fixed relative 2.0 2.0 2.0 paramGroup1 1.0000 0.0000 1
frost_13 fixed relative 2.0 2.0 2.0 paramGroup1 1.0000 0.0000 1
frost_14 fixed relative 2.0 2.0 2.0 paramGroup1 1.0000 0.0000 1
frost_15 fixed relative 2.0 2.0 2.0 paramGroup1 1.0000 0.0000 1
frost_16 fixed relative 2.0 2.0 2.0 paramGroup1 1.0000 0.0000 1
frost_17 fixed relative 2.0 2.0 2.0 paramGroup1 1.0000 0.0000 1
rrcs1_100 fixed relative 0.375 0.05 0.7 paramGroup1 1.0000 0.0000 1
rrcs1_101 none relative 0.375 0.05 0.7 paramGroup1 1.0000 0.0000 1
rrcs1_102 none relative 0.375 0.05 0.7 paramGroup1 1.0000 0.0000 1
rrcs1_103 none relative 0.375 0.05 0.7 paramGroup1 1.0000 0.0000 1
rrcs1_104 none relative 0.375 0.05 0.7 paramGroup1 1.0000 0.0000 1
rrcs1_105 none relative 0.375 0.05 1.0 paramGroup1 1.0000 0.0000 1
rrcs1_106 none relative 0.375 0.05 0.7 paramGroup1 1.0000 0.0000 1
rrcs2_100 fixed relative 0.0255 0.001 0.05 paramGroup1 1.0000 0.0000 1
rrcs2_101 none relative 0.0255 0.001 0.05 paramGroup1 1.0000 0.0000 1
rrcs2_102 none relative 0.0255 0.001 0.05 paramGroup1 1.0000 0.0000 1
rrcs2_103 none relative 0.0255 0.001 0.05 paramGroup1 1.0000 0.0000 1
rrcs2_104 none relative 0.0255 0.001 0.05 paramGroup1 1.0000 0.0000 1
rrcs2_105 none relative 0.0255 0.001 0.05 paramGroup1 1.0000 0.0000 1
rrcs2_106 none relative 0.0255 0.001 0.05 paramGroup1 1.0000 0.0000 1
trrcs_100 fixed relative 0.2 0.1 0.3 paramGroup1 1.0000 0.0000 1
trrcs_101 fixed relative 0.2 0.1 0.3 paramGroup1 1.0000 0.0000 1
trrcs_102 fixed relative 0.2 0.1 0.3 paramGroup1 1.0000 0.0000 1
trrcs_103 fixed relative 0.2 0.1 0.3 paramGroup1 1.0000 0.0000 1
trrcs_104 fixed relative 0.2 0.1 0.3 paramGroup1 1.0000 0.0000 1
trrcs_105 fixed relative 0.2 0.1 0.3 paramGroup1 1.0000 0.0000 1
trrcs_106 fixed relative 0.2 0.1 0.3 paramGroup1 1.0000 0.0000 1
mperc1_100 fixed relative 65 30 100 paramGroup1 1.0000 0.0000 1
mperc1_101 fixed relative 65 30 100 paramGroup1 1.0000 0.0000 1
mperc1_102 fixed relative 65 30 100 paramGroup1 1.0000 0.0000 1
mperc1_103 fixed relative 65 30 100 paramGroup1 1.0000 0.0000 1
mperc1_104 fixed relative 65 30 100 paramGroup1 1.0000 0.0000 1
mperc1_105 fixed relative 65 30 100 paramGroup1 1.0000 0.0000 1
mperc1_106 fixed relative 65 30 100 paramGroup1 1.0000 0.0000 1
mperc2_100 fixed relative 65 30 100 paramGroup1 1.0000 0.0000 1
mperc2_101 fixed relative 65 30 100 paramGroup1 1.0000 0.0000 1
mperc2_102 fixed relative 65 30 100 paramGroup1 1.0000 0.0000 1
mperc2_103 fixed relative 65 30 100 paramGroup1 1.0000 0.0000 1
mperc2_104 fixed relative 65 30 100 paramGroup1 1.0000 0.0000 1
mperc2_105 fixed relative 65 30 100 paramGroup1 1.0000 0.0000 1
mperc2_106 fixed relative 65 30 100 paramGroup1 1.0000 0.0000 1
sfrost_100 fixed relative 1.0 1.0 1.0 paramGroup1 1.0000 0.0000 1
sfrost_101 fixed relative 1.0 1.0 1.0 paramGroup1 1.0000 0.0000 1
sfrost_102 fixed relative 1.0 1.0 1.0 paramGroup1 1.0000 0.0000 1
sfrost_103 fixed relative 1.0 1.0 1.0 paramGroup1 1.0000 0.0000 1
sfrost_104 fixed relative 1.0 1.0 1.0 paramGroup1 1.0000 0.0000 1
sfrost_105 fixed relative 1.0 1.0 1.0 paramGroup1 1.0000 0.0000 1
sfrost_106 fixed relative 1.0 1.0 1.0 paramGroup1 1.0000 0.0000 1
macrate_100 fixed relative 0.2 0.1 0.3 paramGroup1 1.0000 0.0000 1
macrate_101 none relative 0.2 0.1 0.3 paramGroup1 1.0000 0.0000 1
macrate_102 none relative 0.2 0.1 0.3 paramGroup1 1.0000 0.0000 1
macrate_103 none relative 0.2 0.1 0.3 paramGroup1 1.0000 0.0000 1
macrate_104 none relative 0.2 0.1 0.3 paramGroup1 1.0000 0.0000 1
macrate_105 none relative 0.2 0.1 0.3 paramGroup1 1.0000 0.0000 1
macrate_106 none relative 0.2 0.1 0.3 paramGroup1 1.0000 0.0000 1
mactrinf_100 fixed relative 30 10 50 paramGroup1 1.0000 0.0000 1
mactrinf_101 none relative 30 10 50 paramGroup1 1.0000 0.0000 1
mactrinf_102 none relative 30 10 50 paramGroup1 1.0000 0.0000 1
mactrinf_103 none relative 30 10 50 paramGroup1 1.0000 0.0000 1
mactrinf_104 none relative 30 10 50 paramGroup1 1.0000 0.0000 1
mactrinf_105 none relative 30 10 50 paramGroup1 1.0000 0.0000 1
mactrinf_106 none relative 30 10 50 paramGroup1 1.0000 0.0000 1
mactrsm_100 fixed relative 0.675 0.5 0.85 paramGroup1 1.0000 0.0000 1
mactrsm_101 fixed relative 0.675 0.5 0.85 paramGroup1 1.0000 0.0000 1
mactrsm_102 fixed relative 0.675 0.5 0.85 paramGroup1 1.0000 0.0000 1
mactrsm_103 fixed relative 0.675 0.5 0.85 paramGroup1 1.0000 0.0000 1
mactrsm_104 fixed relative 0.675 0.5 0.85 paramGroup1 1.0000 0.0000 1
mactrsm_105 fixed relative 0.675 0.5 0.85 paramGroup1 1.0000 0.0000 1
mactrsm_106 fixed relative 0.675 0.5 0.85 paramGroup1 1.0000 0.0000 1
srrate_100 fixed relative 0.15 0.1 0.2 paramGroup1 1.0000 0.0000 1
srrate_101 none relative 0.15 0.1 0.2 paramGroup1 1.0000 0.0000 1
srrate_102 none relative 0.15 0.1 0.2 paramGroup1 1.0000 0.0000 1
srrate_103 none relative 0.15 0.1 0.2 paramGroup1 1.0000 0.0000 1
srrate_104 none relative 0.15 0.1 0.2 paramGroup1 1.0000 0.0000 1
srrate_105 none relative 0.15 0.1 0.2 paramGroup1 1.0000 0.0000 1
srrate_106 none relative 0.15 0.1 0.2 paramGroup1 1.0000 0.0000 1
wcwp_100 fixed relative 0.07 0.04 0.1 paramGroup1 1.0000 0.0000 1
wcwp_101 none relative 0.07 0.04 0.1 paramGroup1 1.0000 0.0000 1
wcwp_102 none relative 0.07 0.04 0.1 paramGroup1 1.0000 0.0000 1
wcwp_103 none relative 0.07 0.04 0.1 paramGroup1 1.0000 0.0000 1
wcwp_104 none relative 0.07 0.04 0.1 paramGroup1 1.0000 0.0000 1
wcwp_105 none relative 0.07 0.04 0.1 paramGroup1 1.0000 0.0000 1
wcwp_106 none relative 0.07 0.04 0.1 paramGroup1 1.0000 0.0000 1
wcfc_100 fixed relative 0.25 0.1 0.4 paramGroup1 1.0000 0.0000 1
wcfc_101 none relative 0.25 0.1 0.4 paramGroup1 1.0000 0.0000 1
wcfc_102 none relative 0.25 0.1 0.5 paramGroup1 1.0000 0.0000 1
wcfc_103 none relative 0.25 0.1 0.4 paramGroup1 1.0000 0.0000 1
wcfc_104 none relative 0.25 0.1 0.4 paramGroup1 1.0000 0.0000 1
wcfc_105 none relative 0.25 0.1 0.4 paramGroup1 1.0000 0.0000 1
wcfc_106 none relative 0.25 0.1 0.4 paramGroup1 1.0000 0.0000 1
wcep_100 fixed relative 0.055 0.01 0.1 paramGroup1 1.0000 0.0000 1
wcep_101 none relative 0.055 0.01 0.1 paramGroup1 1.0000 0.0000 1
wcep_102 none relative 0.055 0.01 0.1 paramGroup1 1.0000 0.0000 1
wcep_103 none relative 0.055 0.01 0.1 paramGroup1 1.0000 0.0000 1
wcep_104 none relative 0.055 0.01 0.35 paramGroup1 1.0000 0.0000 1
wcep_105 none relative 0.055 0.01 0.35 paramGroup1 1.0000 0.0000 1
wcep_106 none relative 0.055 0.01 0.1 paramGroup1 1.0000 0.0000 1
* observation groups
warmup_obs
calib_obs
valid_obs
* observation data
o94979 2.3 0.0 warmup_obs
o94980 1.7 0.0 warmup_obs
o94981 1.5 0.0 warmup_obs
o94982 1.4 0.0 warmup_obs
o94983 1.2 0.0 warmup_obs
o94984 0.9 0.0 warmup_obs
o94985 0.8 0.0 warmup_obs
o94986 0.65 0.0 warmup_obs
o94987 0.6 0.0 warmup_obs
o94988 0.6 0.0 warmup_obs
o94989 0.6 0.0 warmup_obs
o94990 0.65 0.0 warmup_obs
o94991 0.65 0.0 warmup_obs
o94992 0.65 0.0 warmup_obs
o94993 0.65 0.0 warmup_obs
o94994 0.65 0.0 warmup_obs
o94995 0.6 0.0 warmup_obs
o94996 0.6 0.0 warmup_obs
o94997 0.6 0.0 warmup_obs
o94998 0.6 0.0 warmup_obs
o94999 0.6 0.0 warmup_obs
o95000 0.5 0.0 warmup_obs
o95001 0.5 0.0 warmup_obs
o95002 0.6 0.0 warmup_obs
o95003 0.6 0.0 warmup_obs
o95004 0.85 0.0 warmup_obs
o95005 2.4 0.0 warmup_obs
o95006 13.8 0.0 warmup_obs
o95007 14.2 0.0 warmup_obs
o95008 27.0 0.0 warmup_obs
o95009 18.6 0.0 warmup_obs
o95010 6.0 0.0 warmup_obs
o95011 3.4 0.0 warmup_obs
o95012 2.6 0.0 warmup_obs
o95013 2.6 0.0 warmup_obs
o95014 2.2 0.0 warmup_obs
o95015 1.8 0.0 warmup_obs
o95016 6.3 0.0 warmup_obs
o95017 41.0 0.0 warmup_obs
o95018 75.0 0.0 warmup_obs
o95019 62.0 0.0 warmup_obs
o95020 46.0 0.0 warmup_obs
o95021 25.0 0.0 warmup_obs
o95022 14.8 0.0 warmup_obs
o95023 10.0 0.0 warmup_obs
o95024 7.4 0.0 warmup_obs
o95025 4.9 0.0 warmup_obs
o95026 4.9 0.0 warmup_obs
o95027 3.7 0.0 warmup_obs
o95028 3.6 0.0 warmup_obs
o95029 3.4 0.0 warmup_obs
o95030 3.2 0.0 warmup_obs
o95031 3.4 0.0 warmup_obs
o95032 3.2 0.0 warmup_obs
o95033 2.8 0.0 warmup_obs
o95034 2.6 0.0 warmup_obs
o95035 2.6 0.0 warmup_obs
o95036 2.0 0.0 warmup_obs
o95037 2.0 0.0 warmup_obs
o95038 1.8 0.0 warmup_obs
o95039 1.7 0.0 warmup_obs
o95040 1.6 0.0 warmup_obs
o95041 1.6 0.0 warmup_obs
o95042 1.5 0.0 warmup_obs
o95043 1.5 0.0 warmup_obs
o95044 1.5 0.0 warmup_obs
o95045 1.5 0.0 warmup_obs
o95046 1.6 0.0 warmup_obs
o95047 1.7 0.0 warmup_obs
o95048 1.9 0.0 warmup_obs
o95049 1.9 0.0 warmup_obs
o95050 1.8 0.0 warmup_obs
o95051 1.8 0.0 warmup_obs
o95052 1.9 0.0 warmup_obs
o95053 2.7 0.0 warmup_obs
o95054 6.3 0.0 warmup_obs
o95055 17.4 0.0 warmup_obs
o95056 22.0 0.0 warmup_obs
o95057 7.4 0.0 warmup_obs
o95058 4.0 0.0 warmup_obs
o95059 2.7 0.0 warmup_obs
o95060 1.9 0.0 warmup_obs
o95061 1.7 0.0 warmup_obs
o95062 1.6 0.0 warmup_obs
o95063 1.5 0.0 warmup_obs
o95064 8.2 0.0 warmup_obs
o95065 25.33 0.0 warmup_obs
o95066 17.8 0.0 warmup_obs
o95067 12.6 0.0 warmup_obs
o95068 11.8 0.0 warmup_obs
o95069 11.8 0.0 warmup_obs
o95070 10.0 0.0 warmup_obs
o95071 7.6 0.0 warmup_obs
o95072 7.6 0.0 warmup_obs
o95073 8.8 0.0 warmup_obs
o95074 7.9 0.0 warmup_obs
o95075 9.4 0.0 warmup_obs
o95076 12.6 0.0 warmup_obs
o95077 12.6 0.0 warmup_obs
o95078 9.4 0.0 warmup_obs
o95079 7.6 0.0 warmup_obs
o95080 5.8 0.0 warmup_obs
o95081 4.9 0.0 warmup_obs
o95082 4.2 0.0 warmup_obs
o95083 3.7 0.0 warmup_obs
o95084 3.0 0.0 warmup_obs
o95085 2.7 0.0 warmup_obs
o95086 3.2 0.0 warmup_obs
o95087 6.6 0.0 warmup_obs
o95088 5.5 0.0 warmup_obs
o95089 5.3 0.0 warmup_obs
o95090 4.9 0.0 warmup_obs
o95091 4.0 0.0 warmup_obs
o95092 3.4 0.0 warmup_obs
o95093 3.0 0.0 warmup_obs
o95094 8.8 0.0 warmup_obs
o95095 14.8 0.0 warmup_obs
o95096 24.0 0.0 warmup_obs
o95097 14.2 0.0 warmup_obs
o95098 11.8 0.0 warmup_obs
o95099 8.8 0.0 warmup_obs
o95100 5.8 0.0 warmup_obs
o95101 4.3 0.0 warmup_obs
o95102 3.7 0.0 warmup_obs
o95103 3.0 0.0 warmup_obs
o95104 2.6 0.0 warmup_obs
o95105 2.2 0.0 warmup_obs
o95106 1.9 0.0 warmup_obs
o95107 1.7 0.0 warmup_obs
o95108 1.6 0.0 warmup_obs
o95109 1.4 0.0 warmup_obs
o95110 1.3 0.0 warmup_obs
o95111 1.2 0.0 warmup_obs
o95112 1.1 0.0 warmup_obs
o95113 1.1 0.0 warmup_obs
o95114 2.2 0.0 warmup_obs
o95115 4.2 0.0 warmup_obs
o95116 2.8 0.0 warmup_obs
o95117 2.2 0.0 warmup_obs
o95118 1.8 0.0 warmup_obs
o95119 1.5 0.0 warmup_obs
o95120 1.3 0.0 warmup_obs
o95121 1.2 0.0 warmup_obs
o95122 1.0 0.0 warmup_obs
o95123 0.9 0.0 warmup_obs
o95124 0.85 0.0 warmup_obs
o95125 0.9 0.0 warmup_obs
o95126 19.0 0.0 warmup_obs
o95127 7.9 0.0 warmup_obs
o95128 3.7 0.0 warmup_obs
o95129 2.4 0.0 warmup_obs
o95130 1.8 0.0 warmup_obs
o95131 1.4 0.0 warmup_obs
o95132 1.1 0.0 warmup_obs
o95133 1.0 0.0 warmup_obs
o95134 0.85 0.0 warmup_obs
o95135 0.7 0.0 warmup_obs
o95136 0.65 0.0 warmup_obs
o95137 0.65 0.0 warmup_obs
o95138 0.65 0.0 warmup_obs
o95139 0.65 0.0 warmup_obs
o95140 0.6 0.0 warmup_obs
o95141 0.6 0.0 warmup_obs
o95142 0.5 0.0 warmup_obs
o95143 0.47 0.0 warmup_obs
o95144 0.47 0.0 warmup_obs
o95145 0.43 0.0 warmup_obs
o95146 0.5 0.0 warmup_obs
o95147 0.7 0.0 warmup_obs
o95148 3.6 0.0 warmup_obs
o95149 7.1 0.0 warmup_obs
o95150 5.1 0.0 warmup_obs
o95151 2.6 0.0 warmup_obs
o95152 1.6 0.0 warmup_obs
o95153 1.2 0.0 warmup_obs
o95154 1.1 0.0 warmup_obs
o95155 1.0 0.0 warmup_obs
o95156 0.9 0.0 warmup_obs
o95157 0.8 0.0 warmup_obs
o95158 0.8 0.0 warmup_obs
o95159 0.85 0.0 warmup_obs
o95160 0.8 0.0 warmup_obs
o95161 0.9 0.0 warmup_obs
o95162 0.8 0.0 warmup_obs
o95163 0.85 0.0 warmup_obs
o95164 1.3 0.0 warmup_obs
o95165 1.1 0.0 warmup_obs
o95166 0.9 0.0 warmup_obs
o95167 0.7 0.0 warmup_obs
o95168 0.65 0.0 warmup_obs
o95169 0.6 0.0 warmup_obs
o95170 0.7 0.0 warmup_obs
o95171 2.27 0.0 warmup_obs
o95172 2.0 0.0 warmup_obs
o95173 1.85 0.0 warmup_obs
o95174 1.25 0.0 warmup_obs
o95175 1.4 0.0 warmup_obs
o95176 9.1 0.0 warmup_obs
o95177 5.38 0.0 warmup_obs
o95178 3.4 0.0 warmup_obs
o95179 1.97 0.0 warmup_obs
o95180 1.3 0.0 warmup_obs
o95181 0.96 0.0 warmup_obs
o95182 0.83 0.0 warmup_obs
o95183 0.76 0.0 warmup_obs
o95184 0.7 0.0 warmup_obs
o95185 0.6 0.0 warmup_obs
o95186 0.6 0.0 warmup_obs
o95187 0.5 0.0 warmup_obs
o95188 0.5 0.0 warmup_obs
o95189 0.4 0.0 warmup_obs
o95190 0.4 0.0 warmup_obs
o95191 0.4 0.0 warmup_obs
o95192 0.5 0.0 warmup_obs
o95193 0.6 0.0 warmup_obs
o95194 0.6 0.0 warmup_obs
o95195 0.6 0.0 warmup_obs
o95196 0.5 0.0 warmup_obs
o95197 0.5 0.0 warmup_obs
o95198 0.5 0.0 warmup_obs
o95199 0.5 0.0 warmup_obs
o95200 0.61 0.0 warmup_obs
o95201 0.53 0.0 warmup_obs
o95202 0.48 0.0 warmup_obs
o95203 0.49 0.0 warmup_obs
o95204 0.53 0.0 warmup_obs
o95205 0.66 0.0 warmup_obs
o95206 1.46 0.0 warmup_obs
o95207 1.66 0.0 warmup_obs
o95208 1.31 0.0 warmup_obs
o95209 1.16 0.0 warmup_obs
o95210 1.04 0.0 warmup_obs
o95211 0.91 0.0 warmup_obs
o95212 0.78 0.0 warmup_obs
o95213 0.68 0.0 warmup_obs
o95214 0.71 0.0 warmup_obs
o95215 0.84 0.0 warmup_obs
o95216 0.75 0.0 warmup_obs
o95217 1.19 0.0 warmup_obs
o95218 1.45 0.0 warmup_obs
o95219 1.02 0.0 warmup_obs
o95220 0.82 0.0 warmup_obs
o95221 1.35 0.0 warmup_obs
o95222 1.57 0.0 warmup_obs
o95223 1.05 0.0 warmup_obs
o95224 0.83 0.0 warmup_obs
o95225 0.72 0.0 warmup_obs
o95226 0.99 0.0 warmup_obs
o95227 1.36 0.0 warmup_obs
o95228 1.09 0.0 warmup_obs
o95229 0.86 0.0 warmup_obs
o95230 0.72 0.0 warmup_obs
o95231 0.64 0.0 warmup_obs
o95232 0.6 0.0 warmup_obs
o95233 0.56 0.0 warmup_obs
o95234 0.53 0.0 warmup_obs
o95235 0.5 0.0 warmup_obs
o95236 0.49 0.0 warmup_obs
o95237 0.48 0.0 warmup_obs
o95238 0.47 0.0 warmup_obs
o95239 0.46 0.0 warmup_obs
o95240 0.46 0.0 warmup_obs
o95241 0.45 0.0 warmup_obs
o95242 0.45 0.0 warmup_obs
o95243 0.45 0.0 warmup_obs
o95244 0.45 0.0 warmup_obs
o95245 0.44 0.0 warmup_obs
o95246 0.44 0.0 warmup_obs
o95247 0.44 0.0 warmup_obs
o95248 0.44 0.0 warmup_obs
o95249 0.4 0.0 warmup_obs
o95250 0.48 0.0 warmup_obs
o95251 1.6 0.0 warmup_obs
o95252 2.52 0.0 warmup_obs
o95253 2.22 0.0 warmup_obs
o95254 1.42 0.0 warmup_obs
o95255 0.98 0.0 warmup_obs
o95256 0.84 0.0 warmup_obs
o95257 0.73 0.0 warmup_obs
o95258 0.68 0.0 warmup_obs
o95259 0.65 0.0 warmup_obs
o95260 0.63 0.0 warmup_obs
o95261 0.61 0.0 warmup_obs
o95262 0.58 0.0 warmup_obs
o95263 0.54 0.0 warmup_obs
o95264 0.52 0.0 warmup_obs
o95265 0.51 0.0 warmup_obs
o95266 0.5 0.0 warmup_obs
o95267 0.5 0.0 warmup_obs
o95268 0.5 0.0 warmup_obs
o95269 0.5 0.0 warmup_obs
o95270 0.49 0.0 warmup_obs
o95271 0.49 0.0 warmup_obs
o95272 0.48 0.0 warmup_obs
o95273 0.48 0.0 warmup_obs
o95274 0.49 0.0 warmup_obs
o95275 0.48 0.0 warmup_obs
o95276 0.48 0.0 warmup_obs
o95277 0.48 0.0 warmup_obs
o95278 0.48 0.0 warmup_obs
o95279 0.5 0.0 warmup_obs
o95280 0.6 0.0 warmup_obs
o95281 1.04 0.0 warmup_obs
o95282 1.23 0.0 warmup_obs
o95283 0.94 0.0 warmup_obs
o95284 0.83 0.0 warmup_obs
o95285 0.77 0.0 warmup_obs
o95286 0.7 0.0 warmup_obs
o95287 0.6 0.0 warmup_obs
o95288 0.59 0.0 warmup_obs
o95289 0.54 0.0 warmup_obs
o95290 0.48 0.0 warmup_obs
o95291 0.5 0.0 warmup_obs
o95292 0.49 0.0 warmup_obs
o95293 0.51 0.0 warmup_obs
o95294 0.51 0.0 warmup_obs
o95295 0.5 0.0 warmup_obs
o95296 0.52 0.0 warmup_obs
o95297 0.54 0.0 warmup_obs
o95298 0.54 0.0 warmup_obs
o95299 0.58 0.0 warmup_obs
o95300 0.78 0.0 warmup_obs
o95301 2.53 0.0 warmup_obs
o95302 22.81 0.0 warmup_obs
o95303 16.18 0.0 warmup_obs
o95304 15.84 0.0 warmup_obs
o95305 11.97 0.0 warmup_obs
o95306 6.79 0.0 warmup_obs
o95307 7.82 0.0 warmup_obs
o95308 10.82 0.0 warmup_obs
o95309 12.44 0.0 warmup_obs
o95310 13.7 0.0 warmup_obs
o95311 6.15 0.0 warmup_obs
o95312 3.17 0.0 warmup_obs
o95313 3.05 0.0 warmup_obs
o95314 2.36 0.0 warmup_obs
o95315 1.96 0.0 warmup_obs
o95316 1.58 0.0 warmup_obs
o95317 1.14 0.0 warmup_obs
o95318 1.37 0.0 warmup_obs
o95319 1.26 0.0 warmup_obs
o95320 0.93 0.0 warmup_obs
o95321 1.16 0.0 warmup_obs
o95322 1.38 0.0 warmup_obs
o95323 1.22 0.0 warmup_obs
o95324 0.82 0.0 warmup_obs
o95325 0.65 0.0 warmup_obs
o95326 0.63 0.0 warmup_obs
o95327 0.67 0.0 warmup_obs
o95328 0.69 0.0 warmup_obs
o95329 0.68 0.0 warmup_obs
o95330 0.67 0.0 warmup_obs
o95331 0.7 0.0 warmup_obs
o95332 0.76 0.0 warmup_obs
o95333 0.84 0.0 warmup_obs
o95334 1.38 0.0 warmup_obs
o95335 2.23 0.0 warmup_obs
o95336 2.37 0.0 warmup_obs
o95337 2.87 0.0 warmup_obs
o95338 7.53 0.0 warmup_obs
o95339 3.96 0.0 warmup_obs
o95340 4.37 0.0 warmup_obs
o95341 2.19 0.0 warmup_obs
o95342 1.67 0.0 warmup_obs
o95343 1.73 0.0 warmup_obs
o95344 1.94 0.0 warmup_obs
o95345 3.0 0.56125 calib_obs
o95346 1.9 0.56125 calib_obs
o95347 1.4 0.56125 calib_obs
o95348 1.2 0.56125 calib_obs
o95349 0.8 0.56125 calib_obs
o95350 0.6 0.56125 calib_obs
o95351 0.6 0.56125 calib_obs
o95352 0.6 0.56125 calib_obs
o95353 0.6 0.56125 calib_obs
o95354 0.8 0.56125 calib_obs
o95355 1.0 0.56125 calib_obs
o95356 0.8 0.56125 calib_obs
o95357 0.8 0.56125 calib_obs
o95358 0.8 0.56125 calib_obs
o95359 0.8 0.56125 calib_obs
o95360 0.8 0.56125 calib_obs
o95361 0.7 0.56125 calib_obs
o95362 0.7 0.56125 calib_obs
o95363 0.8 0.56125 calib_obs
o95364 0.8 0.56125 calib_obs
o95365 0.7 0.56125 calib_obs
o95366 0.7 0.56125 calib_obs
o95367 0.7 0.56125 calib_obs
o95368 0.7 0.56125 calib_obs
o95369 0.6 0.56125 calib_obs
o95370 0.8 0.56125 calib_obs
o95371 1.1 0.56125 calib_obs
o95372 0.8 0.56125 calib_obs
o95373 0.8 0.56125 calib_obs
o95374 1.2 0.56125 calib_obs
o95375 1.4 0.56125 calib_obs
o95376 1.0 0.56125 calib_obs
o95377 0.8 0.56125 calib_obs
o95378 0.8 0.56125 calib_obs
o95379 0.8 0.56125 calib_obs
o95380 0.8 0.56125 calib_obs
o95381 0.7 0.56125 calib_obs
o95382 0.6 0.56125 calib_obs
o95383 0.6 0.56125 calib_obs
o95384 0.5 1.68375 calib_obs
o95385 0.5 1.68375 calib_obs
o95386 0.5 1.68375 calib_obs
o95387 0.5 1.68375 calib_obs
o95388 0.5 1.68375 calib_obs
o95389 0.6 0.56125 calib_obs
o95390 0.5 1.68375 calib_obs
o95391 0.5 1.68375 calib_obs
o95392 0.5 1.68375 calib_obs
o95393 0.6 0.56125 calib_obs
o95394 1.2 0.56125 calib_obs
o95395 3.2 0.56125 calib_obs
o95396 1.7 0.56125 calib_obs
o95397 0.9 0.56125 calib_obs
o95398 0.8 0.56125 calib_obs
o95399 0.6 0.56125 calib_obs
o95400 0.6 0.56125 calib_obs
o95401 0.6 0.56125 calib_obs
o95402 0.6 0.56125 calib_obs
o95403 0.9 0.56125 calib_obs
o95404 24.0 0.56125 calib_obs
o95405 26.0 0.56125 calib_obs
o95406 14.2 0.56125 calib_obs
o95407 5.1 0.56125 calib_obs
o95408 2.2 0.56125 calib_obs
o95409 1.5 0.56125 calib_obs
o95410 1.1 0.56125 calib_obs
o95411 0.9 0.56125 calib_obs
o95412 0.8 0.56125 calib_obs
o95413 1.0 0.56125 calib_obs
o95414 2.0 0.56125 calib_obs
o95415 2.8 0.56125 calib_obs
o95416 5.8 0.56125 calib_obs
o95417 13.8 0.56125 calib_obs
o95418 32.0 0.56125 calib_obs
o95419 29.0 0.56125 calib_obs
o95420 27.0 0.56125 calib_obs
o95421 25.0 0.56125 calib_obs
o95422 12.2 0.56125 calib_obs
o95423 8.2 0.56125 calib_obs
o95424 4.9 0.56125 calib_obs
o95425 14.2 0.56125 calib_obs
o95426 14.2 0.56125 calib_obs
o95427 7.1 0.56125 calib_obs
o95428 4.3 0.56125 calib_obs
o95429 4.7 0.56125 calib_obs
o95430 8.2 0.56125 calib_obs
o95431 8.2 0.56125 calib_obs
o95432 4.2 0.56125 calib_obs
o95433 3.0 0.56125 calib_obs
o95434 2.7 0.56125 calib_obs
o95435 2.4 0.56125 calib_obs
o95436 4.2 0.56125 calib_obs
o95437 8.2 0.56125 calib_obs
o95438 6.8 0.56125 calib_obs
o95439 6.8 0.56125 calib_obs
o95440 8.2 0.56125 calib_obs
o95441 6.6 0.56125 calib_obs
o95442 6.6 0.56125 calib_obs
o95443 5.3 0.56125 calib_obs
o95444 5.5 0.56125 calib_obs
o95445 7.1 0.56125 calib_obs
o95446 6.0 0.56125 calib_obs
o95447 4.9 0.56125 calib_obs
o95448 4.2 0.56125 calib_obs
o95449 3.4 0.56125 calib_obs
o95450 2.8 0.56125 calib_obs
o95451 2.3 0.56125 calib_obs
o95452 2.0 0.56125 calib_obs
o95453 1.8 0.56125 calib_obs
o95454 1.8 0.56125 calib_obs
o95455 2.4 0.56125 calib_obs
o95456 3.13 0.56125 calib_obs
o95457 3.54 0.56125 calib_obs
o95458 3.83 0.56125 calib_obs
o95459 4.24 0.56125 calib_obs
o95460 7.38 0.56125 calib_obs
o95461 4.98 0.56125 calib_obs
o95462 3.98 0.56125 calib_obs
o95463 3.42 0.56125 calib_obs
o95464 3.52 0.56125 calib_obs
o95465 8.02 0.56125 calib_obs
o95466 6.69 0.56125 calib_obs
o95467 4.71 0.56125 calib_obs
o95468 3.75 0.56125 calib_obs
o95469 3.12 0.56125 calib_obs
o95470 2.77 0.56125 calib_obs
o95471 2.52 0.56125 calib_obs
o95472 2.17 0.56125 calib_obs
o95473 1.9 0.56125 calib_obs
o95474 1.76 0.56125 calib_obs
o95475 1.66 0.56125 calib_obs
o95476 1.53 0.56125 calib_obs
o95477 1.39 0.56125 calib_obs
o95478 1.26 0.56125 calib_obs
o95479 1.2 0.56125 calib_obs
o95480 1.18 0.56125 calib_obs
o95481 1.11 0.56125 calib_obs
o95482 1.1 0.56125 calib_obs
o95483 1.15 0.56125 calib_obs
o95484 1.11 0.56125 calib_obs
o95485 1.0 0.56125 calib_obs
o95486 0.89 0.56125 calib_obs
o95487 0.82 0.56125 calib_obs
o95488 0.8 0.56125 calib_obs
o95489 0.8 0.56125 calib_obs
o95490 0.75 0.56125 calib_obs
o95491 0.68 0.56125 calib_obs
o95492 0.63 0.56125 calib_obs
o95493 0.66 0.56125 calib_obs
o95494 0.71 0.56125 calib_obs
o95495 0.79 0.56125 calib_obs
o95496 0.86 0.56125 calib_obs
o95497 0.81 0.56125 calib_obs
o95498 0.79 0.56125 calib_obs
o95499 0.66 0.56125 calib_obs
o95500 0.63 0.56125 calib_obs
o95501 0.76 0.56125 calib_obs
o95502 0.81 0.56125 calib_obs
o95503 1.48 0.56125 calib_obs
o95504 17.54 0.56125 calib_obs
o95505 7.37 0.56125 calib_obs
o95506 3.48 0.56125 calib_obs
o95507 2.9 0.56125 calib_obs
o95508 14.27 0.56125 calib_obs
o95509 12.98 0.56125 calib_obs
o95510 5.48 0.56125 calib_obs
o95511 3.01 0.56125 calib_obs
o95512 1.99 0.56125 calib_obs
o95513 1.54 0.56125 calib_obs
o95514 1.19 0.56125 calib_obs
o95515 1.18 0.56125 calib_obs
o95516 1.55 0.56125 calib_obs
o95517 1.33 0.56125 calib_obs
o95518 1.03 0.56125 calib_obs
o95519 0.83 0.56125 calib_obs
o95520 0.8 0.56125 calib_obs
o95521 0.82 0.56125 calib_obs
o95522 0.99 0.56125 calib_obs
o95523 1.01 0.56125 calib_obs
o95524 0.79 0.56125 calib_obs
o95525 0.64 0.56125 calib_obs
o95526 0.58 0.56125 calib_obs
o95527 0.51 0.56125 calib_obs
o95528 0.47 1.68375 calib_obs
o95529 0.5 1.68375 calib_obs
o95530 0.55 0.56125 calib_obs
o95531 0.51 0.56125 calib_obs
o95532 0.42 1.68375 calib_obs
o95533 0.4 1.68375 calib_obs
o95534 0.4 1.68375 calib_obs
o95535 0.4 1.68375 calib_obs
o95536 0.4 1.68375 calib_obs
o95537 0.4 1.68375 calib_obs
o95538 0.4 1.68375 calib_obs
o95539 0.4 1.68375 calib_obs
o95540 0.4 1.68375 calib_obs
o95541 0.4 1.68375 calib_obs
o95542 0.4 1.68375 calib_obs
o95543 0.4 1.68375 calib_obs
o95544 0.38 1.68375 calib_obs
o95545 0.39 1.68375 calib_obs
o95546 0.4 1.68375 calib_obs
o95547 0.32 1.68375 calib_obs
o95548 0.23 1.68375 calib_obs
o95549 0.2 1.68375 calib_obs
o95550 0.2 1.68375 calib_obs
o95551 0.2 1.68375 calib_obs
o95552 0.2 1.68375 calib_obs
o95553 0.21 1.68375 calib_obs
o95554 0.23 1.68375 calib_obs
o95555 0.23 1.68375 calib_obs
o95556 0.24 1.68375 calib_obs
o95557 0.21 1.68375 calib_obs
o95558 0.32 1.68375 calib_obs
o95559 0.4 1.68375 calib_obs
o95560 0.51 0.56125 calib_obs
o95561 0.66 0.56125 calib_obs
o95562 0.77 0.56125 calib_obs
o95563 1.4 0.56125 calib_obs
o95564 1.59 0.56125 calib_obs
o95565 1.08 0.56125 calib_obs
o95566 0.73 0.56125 calib_obs
o95567 0.58 0.56125 calib_obs
o95568 0.48 1.68375 calib_obs
o95569 0.6 0.56125 calib_obs
o95570 0.94 0.56125 calib_obs
o95571 0.87 0.56125 calib_obs
o95572 0.62 0.56125 calib_obs
o95573 0.48 1.68375 calib_obs
o95574 0.41 1.68375 calib_obs
o95575 0.4 1.68375 calib_obs
o95576 0.4 1.68375 calib_obs
o95577 0.4 1.68375 calib_obs
o95578 0.41 1.68375 calib_obs
o95579 0.4 1.68375 calib_obs
o95580 0.4 1.68375 calib_obs
o95581 0.4 1.68375 calib_obs
o95582 0.4 1.68375 calib_obs
o95583 0.4 1.68375 calib_obs
o95584 0.37 1.68375 calib_obs
o95585 0.34 1.68375 calib_obs
o95586 0.32 1.68375 calib_obs
o95587 0.37 1.68375 calib_obs
o95588 0.57 0.56125 calib_obs
o95589 0.75 0.56125 calib_obs
o95590 0.61 0.56125 calib_obs
o95591 0.49 1.68375 calib_obs
o95592 0.4 1.68375 calib_obs
o95593 0.4 1.68375 calib_obs
o95594 0.39 1.68375 calib_obs
o95595 0.39 1.68375 calib_obs
o95596 0.4 1.68375 calib_obs
o95597 1.15 0.56125 calib_obs
o95598 3.42 0.56125 calib_obs
o95599 3.5 0.56125 calib_obs
o95600 5.34 0.56125 calib_obs
o95601 3.51 0.56125 calib_obs
o95602 3.01 0.56125 calib_obs
o95603 2.06 0.56125 calib_obs
o95604 1.49 0.56125 calib_obs
o95605 1.2 0.56125 calib_obs
o95606 1.02 0.56125 calib_obs
o95607 0.92 0.56125 calib_obs
o95608 0.92 0.56125 calib_obs
o95609 0.91 0.56125 calib_obs
o95610 0.84 0.56125 calib_obs
o95611 0.8 0.56125 calib_obs
o95612 0.75 0.56125 calib_obs
o95613 0.65 0.56125 calib_obs
o95614 0.6 0.56125 calib_obs
o95615 0.6 0.56125 calib_obs
o95616 0.6 0.56125 calib_obs
o95617 0.58 0.56125 calib_obs
o95618 0.56 0.56125 calib_obs
o95619 0.54 0.56125 calib_obs
o95620 1.44 0.56125 calib_obs
o95621 15.83 0.56125 calib_obs
o95622 13.9 0.56125 calib_obs
o95623 6.89 0.56125 calib_obs
o95624 4.27 0.56125 calib_obs
o95625 12.76 0.56125 calib_obs
o95626 26.14 0.56125 calib_obs
o95627 28.89 0.56125 calib_obs
o95628 21.81 0.56125 calib_obs
o95629 12.18 0.56125 calib_obs
o95630 25.11 0.56125 calib_obs
o95631 17.05 0.56125 calib_obs
o95632 17.11 0.56125 calib_obs
o95633 16.8 0.56125 calib_obs
o95634 14.2 0.56125 calib_obs
o95635 12.2 0.56125 calib_obs
o95636 11.8 0.56125 calib_obs
o95637 7.1 0.56125 calib_obs
o95638 5.1 0.56125 calib_obs
o95639 4.0 0.56125 calib_obs
o95640 3.6 0.56125 calib_obs
o95641 3.0 0.56125 calib_obs
o95642 2.7 0.56125 calib_obs
o95643 2.6 0.56125 calib_obs
o95644 2.6 0.56125 calib_obs
o95645 4.5 0.56125 calib_obs
o95646 34.0 0.56125 calib_obs
o95647 20.0 0.56125 calib_obs
o95648 10.0 0.56125 calib_obs
o95649 5.8 0.56125 calib_obs
o95650 4.7 0.56125 calib_obs
o95651 4.0 0.56125 calib_obs
o95652 3.7 0.56125 calib_obs
o95653 4.2 0.56125 calib_obs
o95654 5.5 0.56125 calib_obs
o95655 9.1 0.56125 calib_obs
o95656 5.5 0.56125 calib_obs
o95657 4.5 0.56125 calib_obs
o95658 11.8 0.56125 calib_obs
o95659 13.8 0.56125 calib_obs
o95660 28.0 0.56125 calib_obs
o95661 16.6 0.56125 calib_obs
o95662 10.8 0.56125 calib_obs
o95663 7.4 0.56125 calib_obs
o95664 7.9 0.56125 calib_obs
o95665 11.5 0.56125 calib_obs
o95666 15.6 0.56125 calib_obs
o95667 33.0 0.56125 calib_obs
o95668 36.0 0.56125 calib_obs
o95669 18.2 0.56125 calib_obs
o95670 10.4 0.56125 calib_obs
o95671 7.6 0.56125 calib_obs
o95672 16.0 0.56125 calib_obs
o95673 21.0 0.56125 calib_obs
o95674 16.6 0.56125 calib_obs
o95675 18.6 0.56125 calib_obs
o95676 20.0 0.56125 calib_obs
o95677 22.0 0.56125 calib_obs
o95678 19.0 0.56125 calib_obs
o95679 13.0 0.56125 calib_obs
o95680 10.0 0.56125 calib_obs
o95681 15.6 0.56125 calib_obs
o95682 27.0 0.56125 calib_obs
o95683 13.4 0.56125 calib_obs
o95684 8.2 0.56125 calib_obs
o95685 6.0 0.56125 calib_obs
o95686 17.8 0.56125 calib_obs
o95687 31.0 0.56125 calib_obs
o95688 28.0 0.56125 calib_obs
o95689 14.8 0.56125 calib_obs
o95690 9.4 0.56125 calib_obs
o95691 7.4 0.56125 calib_obs
o95692 6.3 0.56125 calib_obs
o95693 6.0 0.56125 calib_obs
o95694 9.4 0.56125 calib_obs
o95695 11.2 0.56125 calib_obs
o95696 7.9 0.56125 calib_obs
o95697 8.5 0.56125 calib_obs
o95698 9.4 0.56125 calib_obs