pcf
* control data
restart estimation
146 7306 2 0 3
1 2 double point 1 0 0
10.0 5.0 0.5 0.005 20
5.0 5.0 0.005 0
0.01
50 0.01 8 8 0.01 8
1 1 1
* parameter groups
paramGroup1 relative 0.01 0.001 switch 2.0 parabolic
paramGroup2 absolute 0.05 0.001 switch 2.0 parabolic
* parameter data
ttpi none relative 1.0 0.0 2.0 paramGroup1 1.0000 0.0000 1
lp none relative 0.9 0.8 1.0 paramGroup1 1.0000 0.0000 1
cevpam fixed relative 0.5 0.5 0.5 paramGroup1 1.0000 0.0000 1
cevpph fixed relative 45 45 45 paramGroup1 1.0000 0.0000 1
rrcs3 fixed relative 0.0002 0.0002 0.0002 paramGroup1 1.0000 0.0000 1
damp none relative 0.255 0.01 0.95 paramGroup1 1.0000 0.0000 1
rivvel none relative 0.75 0.3 1 paramGroup1 1.0000 0.0000 1
tcalt fixed relative 0.6 0.6 0.6 paramGroup1 1.0000 0.0000 1
qmean fixed relative 25 25 25 paramGroup1 1.0000 0.0000 1
epotdist fixed relative 3 3 3 paramGroup1 1.0000 0.0000 1
gldepi none relative 3.0 1.0 10.0 paramGroup1 1.0000 0.0000 1
gratp none relative 2.25 2 2.5 paramGroup1 1.0000 0.0000 1
gratk none relative 1.0 0.05 2.0 paramGroup1 1.0000 0.0000 1
sdnsnew fixed relative 0.145 0.1 0.19 paramGroup1 1.0000 0.0000 1
snowdensdt fixed relative 0.0014 0.0014 0.0014 paramGroup1 1.0000 0.0000 1
ttmp_10 fixed relative 1.0 0.0 2.0 paramGroup1 1.0000 0.0000 1
ttmp_11 none relative 1.0 0.0 2.0 paramGroup1 1.0000 0.0000 1
ttmp_12 fixed relative 1.0 0.0 2.0 paramGroup1 1.0000 0.0000 1
ttmp_13 none relative 1.0 0.0 2.0 paramGroup1 1.0000 0.0000 1
ttmp_14 none relative 1.0 -1.0 2.0 paramGroup2 1.0000 0.0000 1
ttmp_15 none relative 1.0 0.0 2.0 paramGroup1 1.0000 0.0000 1
ttmp_16 none relative 1.0 0.0 2.0 paramGroup1 1.0000 0.0000 1
ttmp_17 none relative 1.0 -2.0 2.0 paramGroup2 1.0000 0.0000 1
cmlt_10 fixed relative 2.6 0.2 5.0 paramGroup1 1.0000 0.0000 1
cmlt_11 none relative 2.6 0.2 8.0 paramGroup1 1.0000 0.0000 1
cmlt_12 fixed relative 2.6 0.2 5.0 paramGroup1 1.0000 0.0000 1
cmlt_13 none relative 2.6 0.2 5.0 paramGroup1 1.0000 0.0000 1
cmlt_14 none relative 2.6 0.2 5.0 paramGroup1 1.0000 0.0000 1
cmlt_15 none relative 2.6 0.2 5.0 paramGroup1 1.0000 0.0000 1
cmlt_16 none relative 2.6 0.2 5.0 paramGroup1 1.0000 0.0000 1
cmlt_17 none relative 2.6 0.2 8.0 paramGroup1 1.0000 0.0000 1
cevp_10 fixed relative 0.15 0.1 0.2 paramGroup1 1.0000 0.0000 1
cevp_11 none relative 0.15 0.1 0.2 paramGroup1 1.0000 0.0000 1
cevp_12 fixed relative 0.15 0.1 0.2 paramGroup1 1.0000 0.0000 1
cevp_13 none relative 0.15 0.1 0.2 paramGroup1 1.0000 0.0000 1
cevp_14 none relative 0.15 0.1 0.2 paramGroup1 1.0000 0.0000 1
cevp_15 none relative 0.15 0.1 0.2 paramGroup1 1.0000 0.0000 1
cevp_16 none relative 0.15 0.1 0.2 paramGroup1 1.0000 0.0000 1
cevp_17 none relative 0.15 0.1 0.2 paramGroup1 1.0000 0.0000 1
srrcs_10 fixed relative 0.15 0.1 0.2 paramGroup1 1.0000 0.0000 1
srrcs_11 none relative 0.15 0.1 0.2 paramGroup1 1.0000 0.0000 1
srrcs_12 fixed relative 0.15 0.1 0.2 paramGroup1 1.0000 0.0000 1
srrcs_13 none relative 0.15 0.1 0.2 paramGroup1 1.0000 0.0000 1
srrcs_14 none relative 0.15 0.1 0.2 paramGroup1 1.0000 0.0000 1
srrcs_15 none relative 0.15 0.1 0.2 paramGroup1 1.0000 0.0000 1
srrcs_16 none relative 0.15 0.1 0.2 paramGroup1 1.0000 0.0000 1
srrcs_17 none relative 0.15 0.1 0.2 paramGroup1 1.0000 0.0000 1
frost_10 fixed relative 2.0 2.0 2.0 paramGroup1 1.0000 0.0000 1
frost_11 fixed relative 2.0 2.0 2.0 paramGroup1 1.0000 0.0000 1
frost_12 fixed relative 2.0 2.0 2.0 paramGroup1 1.0000 0.0000 1
frost_13 fixed relative 2.0 2.0 2.0 paramGroup1 1.0000 0.0000 1
frost_14 fixed relative 2.0 2.0 2.0 paramGroup1 1.0000 0.0000 1
frost_15 fixed relative 2.0 2.0 2.0 paramGroup1 1.0000 0.0000 1
frost_16 fixed relative 2.0 2.0 2.0 paramGroup1 1.0000 0.0000 1
frost_17 fixed relative 2.0 2.0 2.0 paramGroup1 1.0000 0.0000 1
rrcs1_100 fixed relative 0.375 0.05 0.7 paramGroup1 1.0000 0.0000 1
rrcs1_101 none relative 0.375 0.05 0.7 paramGroup1 1.0000 0.0000 1
rrcs1_102 none relative 0.375 0.05 0.7 paramGroup1 1.0000 0.0000 1
rrcs1_103 none relative 0.375 0.05 0.7 paramGroup1 1.0000 0.0000 1
rrcs1_104 none relative 0.375 0.05 0.7 paramGroup1 1.0000 0.0000 1
rrcs1_105 none relative 0.375 0.05 1.0 paramGroup1 1.0000 0.0000 1
rrcs1_106 none relative 0.375 0.05 0.7 paramGroup1 1.0000 0.0000 1
rrcs2_100 fixed relative 0.0255 0.001 0.05 paramGroup1 1.0000 0.0000 1
rrcs2_101 none relative 0.0255 0.001 0.05 paramGroup1 1.0000 0.0000 1
rrcs2_102 none relative 0.0255 0.001 0.05 paramGroup1 1.0000 0.0000 1
rrcs2_103 none relative 0.0255 0.001 0.05 paramGroup1 1.0000 0.0000 1
rrcs2_104 none relative 0.0255 0.001 0.05 paramGroup1 1.0000 0.0000 1
rrcs2_105 none relative 0.0255 0.001 0.05 paramGroup1 1.0000 0.0000 1
rrcs2_106 none relative 0.0255 0.001 0.05 paramGroup1 1.0000 0.0000 1
trrcs_100 fixed relative 0.2 0.1 0.3 paramGroup1 1.0000 0.0000 1
trrcs_101 fixed relative 0.2 0.1 0.3 paramGroup1 1.0000 0.0000 1
trrcs_102 fixed relative 0.2 0.1 0.3 paramGroup1 1.0000 0.0000 1
trrcs_103 fixed relative 0.2 0.1 0.3 paramGroup1 1.0000 0.0000 1
trrcs_104 fixed relative 0.2 0.1 0.3 paramGroup1 1.0000 0.0000 1
trrcs_105 fixed relative 0.2 0.1 0.3 paramGroup1 1.0000 0.0000 1
trrcs_106 fixed relative 0.2 0.1 0.3 paramGroup1 1.0000 0.0000 1
mperc1_100 fixed relative 65 30 100 paramGroup1 1.0000 0.0000 1
mperc1_101 fixed relative 65 30 100 paramGroup1 1.0000 0.0000 1
mperc1_102 fixed relative 65 30 100 paramGroup1 1.0000 0.0000 1
mperc1_103 fixed relative 65 30 100 paramGroup1 1.0000 0.0000 1
mperc1_104 fixed relative 65 30 100 paramGroup1 1.0000 0.0000 1
mperc1_105 fixed relative 65 30 100 paramGroup1 1.0000 0.0000 1
mperc1_106 fixed relative 65 30 100 paramGroup1 1.0000 0.0000 1
mperc2_100 fixed relative 65 30 100 paramGroup1 1.0000 0.0000 1
mperc2_101 fixed relative 65 30 100 paramGroup1 1.0000 0.0000 1
mperc2_102 fixed relative 65 30 100 paramGroup1 1.0000 0.0000 1
mperc2_103 fixed relative 65 30 100 paramGroup1 1.0000 0.0000 1
mperc2_104 fixed relative 65 30 100 paramGroup1 1.0000 0.0000 1
mperc2_105 fixed relative 65 30 100 paramGroup1 1.0000 0.0000 1
mperc2_106 fixed relative 65 30 100 paramGroup1 1.0000 0.0000 1
sfrost_100 fixed relative 1.0 1.0 1.0 paramGroup1 1.0000 0.0000 1
sfrost_101 fixed relative 1.0 1.0 1.0 paramGroup1 1.0000 0.0000 1
sfrost_102 fixed relative 1.0 1.0 1.0 paramGroup1 1.0000 0.0000 1
sfrost_103 fixed relative 1.0 1.0 1.0 paramGroup1 1.0000 0.0000 1
sfrost_104 fixed relative 1.0 1.0 1.0 paramGroup1 1.0000 0.0000 1
sfrost_105 fixed relative 1.0 1.0 1.0 paramGroup1 1.0000 0.0000 1
sfrost_106 fixed relative 1.0 1.0 1.0 paramGroup1 1.0000 0.0000 1
macrate_100 fixed relative 0.2 0.1 0.3 paramGroup1 1.0000 0.0000 1
macrate_101 none relative 0.2 0.1 0.3 paramGroup1 1.0000 0.0000 1
macrate_102 none relative 0.2 0.1 0.3 paramGroup1 1.0000 0.0000 1
macrate_103 none relative 0.2 0.1 0.3 paramGroup1 1.0000 0.0000 1
macrate_104 none relative 0.2 0.1 0.3 paramGroup1 1.0000 0.0000 1
macrate_105 none relative 0.2 0.1 0.3 paramGroup1 1.0000 0.0000 1
macrate_106 none relative 0.2 0.1 0.3 paramGroup1 1.0000 0.0000 1
mactrinf_100 fixed relative 30 10 50 paramGroup1 1.0000 0.0000 1
mactrinf_101 none relative 30 10 50 paramGroup1 1.0000 0.0000 1
mactrinf_102 none relative 30 10 50 paramGroup1 1.0000 0.0000 1
mactrinf_103 none relative 30 10 50 paramGroup1 1.0000 0.0000 1
mactrinf_104 none relative 30 10 50 paramGroup1 1.0000 0.0000 1
mactrinf_105 none relative 30 10 50 paramGroup1 1.0000 0.0000 1
mactrinf_106 none relative 30 10 50 paramGroup1 1.0000 0.0000 1
mactrsm_100 fixed relative 0.675 0.5 0.85 paramGroup1 1.0000 0.0000 1
mactrsm_101 fixed relative 0.675 0.5 0.85 paramGroup1 1.0000 0.0000 1
mactrsm_102 fixed relative 0.675 0.5 0.85 paramGroup1 1.0000 0.0000 1
mactrsm_103 fixed relative 0.675 0.5 0.85 paramGroup1 1.0000 0.0000 1
mactrsm_104 fixed relative 0.675 0.5 0.85 paramGroup1 1.0000 0.0000 1
mactrsm_105 fixed relative 0.675 0.5 0.85 paramGroup1 1.0000 0.0000 1
mactrsm_106 fixed relative 0.675 0.5 0.85 paramGroup1 1.0000 0.0000 1
srrate_100 fixed relative 0.15 0.1 0.2 paramGroup1 1.0000 0.0000 1
srrate_101 none relative 0.15 0.1 0.2 paramGroup1 1.0000 0.0000 1
srrate_102 none relative 0.15 0.1 0.2 paramGroup1 1.0000 0.0000 1
srrate_103 none relative 0.15 0.1 0.2 paramGroup1 1.0000 0.0000 1
srrate_104 none relative 0.15 0.1 0.2 paramGroup1 1.0000 0.0000 1
srrate_105 none relative 0.15 0.1 0.2 paramGroup1 1.0000 0.0000 1
srrate_106 none relative 0.15 0.1 0.2 paramGroup1 1.0000 0.0000 1
wcwp_100 fixed relative 0.07 0.04 0.1 paramGroup1 1.0000 0.0000 1
wcwp_101 none relative 0.07 0.04 0.1 paramGroup1 1.0000 0.0000 1
wcwp_102 none relative 0.07 0.04 0.1 paramGroup1 1.0000 0.0000 1
wcwp_103 none relative 0.07 0.04 0.1 paramGroup1 1.0000 0.0000 1
wcwp_104 none relative 0.07 0.04 0.1 paramGroup1 1.0000 0.0000 1
wcwp_105 none relative 0.07 0.04 0.1 paramGroup1 1.0000 0.0000 1
wcwp_106 none relative 0.07 0.04 0.1 paramGroup1 1.0000 0.0000 1
wcfc_100 fixed relative 0.25 0.1 0.4 paramGroup1 1.0000 0.0000 1
wcfc_101 none relative 0.25 0.1 0.4 paramGroup1 1.0000 0.0000 1
wcfc_102 none relative 0.25 0.1 0.5 paramGroup1 1.0000 0.0000 1
wcfc_103 none relative 0.25 0.1 0.4 paramGroup1 1.0000 0.0000 1
wcfc_104 none relative 0.25 0.1 0.4 paramGroup1 1.0000 0.0000 1
wcfc_105 none relative 0.25 0.1 0.4 paramGroup1 1.0000 0.0000 1
wcfc_106 none relative 0.25 0.1 0.4 paramGroup1 1.0000 0.0000 1
wcep_100 fixed relative 0.055 0.01 0.1 paramGroup1 1.0000 0.0000 1
wcep_101 none relative 0.055 0.01 0.1 paramGroup1 1.0000 0.0000 1
wcep_102 none relative 0.055 0.01 0.1 paramGroup1 1.0000 0.0000 1
wcep_103 none relative 0.055 0.01 0.1 paramGroup1 1.0000 0.0000 1
wcep_104 none relative 0.055 0.01 0.35 paramGroup1 1.0000 0.0000 1
wcep_105 none relative 0.055 0.01 0.35 paramGroup1 1.0000 0.0000 1
wcep_106 none relative 0.055 0.01 0.1 paramGroup1 1.0000 0.0000 1
* observation groups
warmup_obs
calib_obs
valid_obs
* observation data
o32878 0.95 0.0 warmup_obs
o32879 0.95 0.0 warmup_obs
o32880 0.75 0.0 warmup_obs
o32881 0.75 0.0 warmup_obs
o32882 0.6 0.0 warmup_obs
o32883 0.6 0.0 warmup_obs
o32884 0.51 0.0 warmup_obs
o32885 0.51 0.0 warmup_obs
o32886 0.51 0.0 warmup_obs
o32887 0.4 0.0 warmup_obs
o32888 0.39 0.0 warmup_obs
o32889 0.39 0.0 warmup_obs
o32890 0.39 0.0 warmup_obs
o32891 0.39 0.0 warmup_obs
o32892 0.39 0.0 warmup_obs
o32893 0.39 0.0 warmup_obs
o32894 0.39 0.0 warmup_obs
o32895 0.39 0.0 warmup_obs
o32896 0.39 0.0 warmup_obs
o32897 0.39 0.0 warmup_obs
o32898 0.39 0.0 warmup_obs
o32899 0.39 0.0 warmup_obs
o32900 0.39 0.0 warmup_obs
o32901 0.31 0.0 warmup_obs
o32902 0.31 0.0 warmup_obs
o32903 0.31 0.0 warmup_obs
o32904 0.31 0.0 warmup_obs
o32905 0.75 0.0 warmup_obs
o32906 1.15 0.0 warmup_obs
o32907 1.15 0.0 warmup_obs
o32908 1.15 0.0 warmup_obs
o32909 1.15 0.0 warmup_obs
o32910 1.15 0.0 warmup_obs
o32911 1.15 0.0 warmup_obs
o32912 1.15 0.0 warmup_obs
o32913 0.75 0.0 warmup_obs
o32914 0.6 0.0 warmup_obs
o32915 1.15 0.0 warmup_obs
o32916 2.0 0.0 warmup_obs
o32917 8.6 0.0 warmup_obs
o32918 21.0 0.0 warmup_obs
o32919 36.0 0.0 warmup_obs
o32920 21.0 0.0 warmup_obs
o32921 16.3 0.0 warmup_obs
o32922 11.4 0.0 warmup_obs
o32923 6.8 0.0 warmup_obs
o32924 5.3 0.0 warmup_obs
o32925 5.3 0.0 warmup_obs
o32926 3.6 0.0 warmup_obs
o32927 2.7 0.0 warmup_obs
o32928 2.7 0.0 warmup_obs
o32929 4.7 0.0 warmup_obs
o32930 4.7 0.0 warmup_obs
o32931 3.3 0.0 warmup_obs
o32932 3.3 0.0 warmup_obs
o32933 2.7 0.0 warmup_obs
o32934 2.7 0.0 warmup_obs
o32935 0.95 0.0 warmup_obs
o32936 0.75 0.0 warmup_obs
o32937 0.75 0.0 warmup_obs
o32938 0.51 0.0 warmup_obs
o32939 0.51 0.0 warmup_obs
o32940 0.39 0.0 warmup_obs
o32941 0.39 0.0 warmup_obs
o32942 0.39 0.0 warmup_obs
o32943 0.39 0.0 warmup_obs
o32944 0.39 0.0 warmup_obs
o32945 0.49 0.0 warmup_obs
o32946 0.75 0.0 warmup_obs
o32947 1.15 0.0 warmup_obs
o32948 1.4 0.0 warmup_obs
o32949 1.4 0.0 warmup_obs
o32950 1.15 0.0 warmup_obs
o32951 1.15 0.0 warmup_obs
o32952 1.15 0.0 warmup_obs
o32953 2.0 0.0 warmup_obs
o32954 2.3 0.0 warmup_obs
o32955 4.2 0.0 warmup_obs
o32956 2.7 0.0 warmup_obs
o32957 2.7 0.0 warmup_obs
o32958 2.3 0.0 warmup_obs
o32959 2.0 0.0 warmup_obs
o32960 0.75 0.0 warmup_obs
o32961 0.6 0.0 warmup_obs
o32962 0.75 0.0 warmup_obs
o32963 0.95 0.0 warmup_obs
o32964 2.0 0.0 warmup_obs
o32965 9.7 0.0 warmup_obs
o32966 14.8 0.0 warmup_obs
o32967 13.4 0.0 warmup_obs
o32968 9.7 0.0 warmup_obs
o32969 8.6 0.0 warmup_obs
o32970 8.6 0.0 warmup_obs
o32971 7.7 0.0 warmup_obs
o32972 6.8 0.0 warmup_obs
o32973 6.8 0.0 warmup_obs
o32974 6.8 0.0 warmup_obs
o32975 19.5 0.0 warmup_obs
o32976 16.3 0.0 warmup_obs
o32977 11.4 0.0 warmup_obs
o32978 9.7 0.0 warmup_obs
o32979 7.7 0.0 warmup_obs
o32980 6.1 0.0 warmup_obs
o32981 4.7 0.0 warmup_obs
o32982 4.7 0.0 warmup_obs
o32983 3.1 0.0 warmup_obs
o32984 3.1 0.0 warmup_obs
o32985 2.7 0.0 warmup_obs
o32986 2.7 0.0 warmup_obs
o32987 4.2 0.0 warmup_obs
o32988 5.7 0.0 warmup_obs
o32989 2.7 0.0 warmup_obs
o32990 2.3 0.0 warmup_obs
o32991 2.0 0.0 warmup_obs
o32992 2.0 0.0 warmup_obs
o32993 9.7 0.0 warmup_obs
o32994 10.8 0.0 warmup_obs
o32995 33.0 0.0 warmup_obs
o32996 24.0 0.0 warmup_obs
o32997 33.0 0.0 warmup_obs
o32998 21.0 0.0 warmup_obs
o32999 14.8 0.0 warmup_obs
o33000 9.7 0.0 warmup_obs
o33001 7.7 0.0 warmup_obs
o33002 5.3 0.0 warmup_obs
o33003 2.7 0.0 warmup_obs
o33004 2.7 0.0 warmup_obs
o33005 2.0 0.0 warmup_obs
o33006 2.0 0.0 warmup_obs
o33007 2.0 0.0 warmup_obs
o33008 1.7 0.0 warmup_obs
o33009 1.7 0.0 warmup_obs
o33010 1.7 0.0 warmup_obs
o33011 1.15 0.0 warmup_obs
o33012 1.15 0.0 warmup_obs
o33013 1.7 0.0 warmup_obs
o33014 1.55 0.0 warmup_obs
o33015 1.15 0.0 warmup_obs
o33016 1.15 0.0 warmup_obs
o33017 1.15 0.0 warmup_obs
o33018 1.15 0.0 warmup_obs
o33019 1.15 0.0 warmup_obs
o33020 1.15 0.0 warmup_obs
o33021 0.75 0.0 warmup_obs
o33022 0.75 0.0 warmup_obs
o33023 0.75 0.0 warmup_obs
o33024 0.51 0.0 warmup_obs
o33025 0.7 0.0 warmup_obs
o33026 0.51 0.0 warmup_obs
o33027 0.51 0.0 warmup_obs
o33028 0.51 0.0 warmup_obs
o33029 0.49 0.0 warmup_obs
o33030 0.49 0.0 warmup_obs
o33031 0.39 0.0 warmup_obs
o33032 0.39 0.0 warmup_obs
o33033 0.39 0.0 warmup_obs
o33034 0.39 0.0 warmup_obs
o33035 0.39 0.0 warmup_obs
o33036 0.31 0.0 warmup_obs
o33037 0.31 0.0 warmup_obs
o33038 0.31 0.0 warmup_obs
o33039 0.25 0.0 warmup_obs
o33040 0.25 0.0 warmup_obs
o33041 0.25 0.0 warmup_obs
o33042 0.25 0.0 warmup_obs
o33043 0.25 0.0 warmup_obs
o33044 0.21 0.0 warmup_obs
o33045 0.31 0.0 warmup_obs
o33046 0.39 0.0 warmup_obs
o33047 0.51 0.0 warmup_obs
o33048 0.75 0.0 warmup_obs
o33049 1.15 0.0 warmup_obs
o33050 0.75 0.0 warmup_obs
o33051 0.75 0.0 warmup_obs
o33052 0.4 0.0 warmup_obs
o33053 0.39 0.0 warmup_obs
o33054 0.39 0.0 warmup_obs
o33055 0.39 0.0 warmup_obs
o33056 0.39 0.0 warmup_obs
o33057 0.6 0.0 warmup_obs
o33058 0.39 0.0 warmup_obs
o33059 0.39 0.0 warmup_obs
o33060 0.39 0.0 warmup_obs
o33061 0.39 0.0 warmup_obs
o33062 0.39 0.0 warmup_obs
o33063 0.49 0.0 warmup_obs
o33064 0.75 0.0 warmup_obs
o33065 0.75 0.0 warmup_obs
o33066 2.0 0.0 warmup_obs
o33067 0.51 0.0 warmup_obs
o33068 0.49 0.0 warmup_obs
o33069 0.39 0.0 warmup_obs
o33070 0.39 0.0 warmup_obs
o33071 0.39 0.0 warmup_obs
o33072 0.75 0.0 warmup_obs
o33073 0.51 0.0 warmup_obs
o33074 0.49 0.0 warmup_obs
o33075 2.0 0.0 warmup_obs
o33076 1.4 0.0 warmup_obs
o33077 0.75 0.0 warmup_obs
o33078 0.6 0.0 warmup_obs
o33079 0.49 0.0 warmup_obs
o33080 0.49 0.0 warmup_obs
o33081 0.39 0.0 warmup_obs
o33082 0.39 0.0 warmup_obs
o33083 0.39 0.0 warmup_obs
o33084 0.39 0.0 warmup_obs
o33085 0.31 0.0 warmup_obs
o33086 0.31 0.0 warmup_obs
o33087 0.31 0.0 warmup_obs
o33088 0.31 0.0 warmup_obs
o33089 0.31 0.0 warmup_obs
o33090 0.31 0.0 warmup_obs
o33091 0.49 0.0 warmup_obs
o33092 0.39 0.0 warmup_obs
o33093 0.39 0.0 warmup_obs
o33094 0.49 0.0 warmup_obs
o33095 0.39 0.0 warmup_obs
o33096 0.39 0.0 warmup_obs
o33097 0.39 0.0 warmup_obs
o33098 0.39 0.0 warmup_obs
o33099 0.39 0.0 warmup_obs
o33100 0.39 0.0 warmup_obs
o33101 0.39 0.0 warmup_obs
o33102 0.39 0.0 warmup_obs
o33103 0.39 0.0 warmup_obs
o33104 0.39 0.0 warmup_obs
o33105 0.31 0.0 warmup_obs
o33106 0.31 0.0 warmup_obs
o33107 0.39 0.0 warmup_obs
o33108 0.39 0.0 warmup_obs
o33109 0.6 0.0 warmup_obs
o33110 0.51 0.0 warmup_obs
o33111 0.49 0.0 warmup_obs
o33112 0.39 0.0 warmup_obs
o33113 0.39 0.0 warmup_obs
o33114 0.39 0.0 warmup_obs
o33115 0.39 0.0 warmup_obs
o33116 0.39 0.0 warmup_obs
o33117 0.39 0.0 warmup_obs
o33118 0.39 0.0 warmup_obs
o33119 0.31 0.0 warmup_obs
o33120 0.31 0.0 warmup_obs
o33121 0.31 0.0 warmup_obs
o33122 0.31 0.0 warmup_obs
o33123 0.31 0.0 warmup_obs
o33124 0.31 0.0 warmup_obs
o33125 0.95 0.0 warmup_obs
o33126 1.15 0.0 warmup_obs
o33127 1.15 0.0 warmup_obs
o33128 0.75 0.0 warmup_obs
o33129 0.6 0.0 warmup_obs
o33130 0.49 0.0 warmup_obs
o33131 0.49 0.0 warmup_obs
o33132 0.39 0.0 warmup_obs
o33133 0.39 0.0 warmup_obs
o33134 0.39 0.0 warmup_obs
o33135 0.39 0.0 warmup_obs
o33136 0.39 0.0 warmup_obs
o33137 0.31 0.0 warmup_obs
o33138 0.31 0.0 warmup_obs
o33139 0.31 0.0 warmup_obs
o33140 0.31 0.0 warmup_obs
o33141 0.31 0.0 warmup_obs
o33142 0.31 0.0 warmup_obs
o33143 0.31 0.0 warmup_obs
o33144 0.31 0.0 warmup_obs
o33145 0.31 0.0 warmup_obs
o33146 0.31 0.0 warmup_obs
o33147 0.31 0.0 warmup_obs
o33148 0.31 0.0 warmup_obs
o33149 0.31 0.0 warmup_obs
o33150 0.31 0.0 warmup_obs
o33151 0.39 0.0 warmup_obs
o33152 0.39 0.0 warmup_obs
o33153 0.39 0.0 warmup_obs
o33154 0.31 0.0 warmup_obs
o33155 0.31 0.0 warmup_obs
o33156 0.31 0.0 warmup_obs
o33157 0.31 0.0 warmup_obs
o33158 0.31 0.0 warmup_obs
o33159 0.31 0.0 warmup_obs
o33160 0.31 0.0 warmup_obs
o33161 0.31 0.0 warmup_obs
o33162 0.31 0.0 warmup_obs
o33163 0.31 0.0 warmup_obs
o33164 0.31 0.0 warmup_obs
o33165 0.31 0.0 warmup_obs
o33166 0.31 0.0 warmup_obs
o33167 0.31 0.0 warmup_obs
o33168 0.31 0.0 warmup_obs
o33169 0.31 0.0 warmup_obs
o33170 0.31 0.0 warmup_obs
o33171 0.31 0.0 warmup_obs
o33172 0.25 0.0 warmup_obs
o33173 0.25 0.0 warmup_obs
o33174 0.25 0.0 warmup_obs
o33175 0.25 0.0 warmup_obs
o33176 0.25 0.0 warmup_obs
o33177 0.31 0.0 warmup_obs
o33178 0.31 0.0 warmup_obs
o33179 0.39 0.0 warmup_obs
o33180 0.49 0.0 warmup_obs
o33181 0.7 0.0 warmup_obs
o33182 0.75 0.0 warmup_obs
o33183 0.51 0.0 warmup_obs
o33184 0.39 0.0 warmup_obs
o33185 0.31 0.0 warmup_obs
o33186 0.31 0.0 warmup_obs
o33187 0.31 0.0 warmup_obs
o33188 0.31 0.0 warmup_obs
o33189 0.25 0.0 warmup_obs
o33190 0.25 0.0 warmup_obs
o33191 0.25 0.0 warmup_obs
o33192 0.25 0.0 warmup_obs
o33193 0.25 0.0 warmup_obs
o33194 0.25 0.0 warmup_obs
o33195 0.25 0.0 warmup_obs
o33196 0.25 0.0 warmup_obs
o33197 0.25 0.0 warmup_obs
o33198 0.19 0.0 warmup_obs
o33199 0.21 0.0 warmup_obs
o33200 1.15 0.0 warmup_obs
o33201 5.3 0.0 warmup_obs
o33202 16.3 0.0 warmup_obs
o33203 7.7 0.0 warmup_obs
o33204 6.1 0.0 warmup_obs
o33205 4.7 0.0 warmup_obs
o33206 4.2 0.0 warmup_obs
o33207 4.2 0.0 warmup_obs
o33208 4.7 0.0 warmup_obs
o33209 10.8 0.0 warmup_obs
o33210 5.3 0.0 warmup_obs
o33211 2.7 0.0 warmup_obs
o33212 2.7 0.0 warmup_obs
o33213 2.0 0.0 warmup_obs
o33214 1.15 0.0 warmup_obs
o33215 0.75 0.0 warmup_obs
o33216 0.75 0.0 warmup_obs
o33217 1.15 0.0 warmup_obs
o33218 0.51 0.0 warmup_obs
o33219 0.51 0.0 warmup_obs
o33220 0.51 0.0 warmup_obs
o33221 0.49 0.0 warmup_obs
o33222 0.49 0.0 warmup_obs
o33223 0.49 0.0 warmup_obs
o33224 0.49 0.0 warmup_obs
o33225 0.39 0.0 warmup_obs
o33226 0.39 0.0 warmup_obs
o33227 0.39 0.0 warmup_obs
o33228 0.39 0.0 warmup_obs
o33229 0.39 0.0 warmup_obs
o33230 0.39 0.0 warmup_obs
o33231 0.39 0.0 warmup_obs
o33232 0.49 0.0 warmup_obs
o33233 0.49 0.0 warmup_obs
o33234 0.49 0.0 warmup_obs
o33235 0.75 0.0 warmup_obs
o33236 0.75 0.0 warmup_obs
o33237 0.75 0.0 warmup_obs
o33238 0.51 0.0 warmup_obs
o33239 0.75 0.0 warmup_obs
o33240 0.75 0.0 warmup_obs
o33241 0.39 0.0 warmup_obs
o33242 0.39 0.0 warmup_obs
o33243 0.39 0.0 warmup_obs
o33244 0.39 0.2975 calib_obs
o33245 0.39 0.2975 calib_obs
o33246 0.39 0.2975 calib_obs
o33247 0.39 0.2975 calib_obs
o33248 0.39 0.2975 calib_obs
o33249 0.39 0.2975 calib_obs
o33250 0.39 0.2975 calib_obs
o33251 0.39 0.2975 calib_obs
o33252 0.39 0.2975 calib_obs
o33253 0.49 0.2975 calib_obs
o33254 0.49 0.2975 calib_obs
o33255 0.39 0.2975 calib_obs
o33256 0.39 0.2975 calib_obs
o33257 0.39 0.2975 calib_obs
o33258 0.49 0.2975 calib_obs
o33259 0.49 0.2975 calib_obs
o33260 0.39 0.2975 calib_obs
o33261 0.39 0.2975 calib_obs
o33262 0.49 0.2975 calib_obs
o33263 0.49 0.2975 calib_obs
o33264 0.39 0.2975 calib_obs
o33265 0.39 0.2975 calib_obs
o33266 0.39 0.2975 calib_obs
o33267 0.39 0.2975 calib_obs
o33268 0.39 0.2975 calib_obs
o33269 0.39 0.2975 calib_obs
o33270 0.39 0.2975 calib_obs
o33271 0.39 0.2975 calib_obs
o33272 0.39 0.2975 calib_obs
o33273 0.39 0.2975 calib_obs
o33274 0.39 0.2975 calib_obs
o33275 0.39 0.2975 calib_obs
o33276 0.39 0.2975 calib_obs
o33277 0.75 0.2975 calib_obs
o33278 0.75 0.2975 calib_obs
o33279 0.25 0.2975 calib_obs
o33280 0.25 0.2975 calib_obs
o33281 0.25 0.2975 calib_obs
o33282 0.15 0.2975 calib_obs
o33283 0.15 0.2975 calib_obs
o33284 0.15 0.2975 calib_obs
o33285 0.15 0.2975 calib_obs
o33286 0.15 0.2975 calib_obs
o33287 0.15 0.2975 calib_obs
o33288 0.15 0.2975 calib_obs
o33289 0.15 0.2975 calib_obs
o33290 0.15 0.2975 calib_obs
o33291 0.15 0.2975 calib_obs
o33292 0.15 0.2975 calib_obs
o33293 0.31 0.2975 calib_obs
o33294 0.39 0.2975 calib_obs
o33295 0.39 0.2975 calib_obs
o33296 0.39 0.2975 calib_obs
o33297 0.39 0.2975 calib_obs
o33298 0.31 0.2975 calib_obs
o33299 0.25 0.2975 calib_obs
o33300 0.25 0.2975 calib_obs
o33301 0.25 0.2975 calib_obs
o33302 0.25 0.2975 calib_obs
o33303 0.39 0.2975 calib_obs
o33304 1.7 0.2975 calib_obs
o33305 2.3 0.2975 calib_obs
o33306 1.4 0.2975 calib_obs
o33307 1.15 0.2975 calib_obs
o33308 0.75 0.2975 calib_obs
o33309 0.39 0.2975 calib_obs
o33310 0.19 0.2975 calib_obs
o33311 0.19 0.2975 calib_obs
o33312 0.15 0.2975 calib_obs
o33313 0.39 0.2975 calib_obs
o33314 0.39 0.2975 calib_obs
o33315 0.31 0.2975 calib_obs
o33316 1.15 0.2975 calib_obs
o33317 1.7 0.2975 calib_obs
o33318 6.5 0.2975 calib_obs
o33319 5.3 0.2975 calib_obs
o33320 7.7 0.2975 calib_obs
o33321 5.3 0.2975 calib_obs
o33322 3.1 0.2975 calib_obs
o33323 2.7 0.2975 calib_obs
o33324 4.2 0.2975 calib_obs
o33325 9.7 0.2975 calib_obs
o33326 5.3 0.2975 calib_obs
o33327 3.6 0.2975 calib_obs
o33328 3.1 0.2975 calib_obs
o33329 5.3 0.2975 calib_obs
o33330 5.3 0.2975 calib_obs
o33331 4.2 0.2975 calib_obs
o33332 3.1 0.2975 calib_obs
o33333 2.7 0.2975 calib_obs
o33334 2.0 0.2975 calib_obs
o33335 3.1 0.2975 calib_obs
o33336 3.6 0.2975 calib_obs
o33337 4.2 0.2975 calib_obs
o33338 6.8 0.2975 calib_obs
o33339 6.1 0.2975 calib_obs
o33340 5.3 0.2975 calib_obs
o33341 9.7 0.2975 calib_obs
o33342 6.8 0.2975 calib_obs
o33343 6.8 0.2975 calib_obs
o33344 9.7 0.2975 calib_obs
o33345 6.5 0.2975 calib_obs
o33346 6.1 0.2975 calib_obs
o33347 5.3 0.2975 calib_obs
o33348 3.1 0.2975 calib_obs
o33349 2.7 0.2975 calib_obs
o33350 2.7 0.2975 calib_obs
o33351 2.0 0.2975 calib_obs
o33352 1.4 0.2975 calib_obs
o33353 1.15 0.2975 calib_obs
o33354 1.4 0.2975 calib_obs
o33355 2.7 0.2975 calib_obs
o33356 3.1 0.2975 calib_obs
o33357 3.1 0.2975 calib_obs
o33358 2.0 0.2975 calib_obs
o33359 5.3 0.2975 calib_obs
o33360 6.1 0.2975 calib_obs
o33361 5.3 0.2975 calib_obs
o33362 3.6 0.2975 calib_obs
o33363 4.2 0.2975 calib_obs
o33364 10.8 0.2975 calib_obs
o33365 6.1 0.2975 calib_obs
o33366 5.3 0.2975 calib_obs
o33367 5.3 0.2975 calib_obs
o33368 2.7 0.2975 calib_obs
o33369 2.7 0.2975 calib_obs
o33370 2.7 0.2975 calib_obs
o33371 2.0 0.2975 calib_obs
o33372 1.7 0.2975 calib_obs
o33373 1.4 0.2975 calib_obs
o33374 1.4 0.2975 calib_obs
o33375 0.95 0.2975 calib_obs
o33376 0.95 0.2975 calib_obs
o33377 0.95 0.2975 calib_obs
o33378 0.95 0.2975 calib_obs
o33379 0.75 0.2975 calib_obs
o33380 0.75 0.2975 calib_obs
o33381 0.75 0.2975 calib_obs
o33382 0.75 0.2975 calib_obs
o33383 0.75 0.2975 calib_obs
o33384 0.6 0.2975 calib_obs
o33385 0.6 0.2975 calib_obs
o33386 0.51 0.2975 calib_obs
o33387 0.51 0.2975 calib_obs
o33388 0.51 0.2975 calib_obs
o33389 0.49 0.2975 calib_obs
o33390 0.39 0.2975 calib_obs
o33391 0.39 0.2975 calib_obs
o33392 0.39 0.2975 calib_obs
o33393 0.39 0.2975 calib_obs
o33394 0.39 0.2975 calib_obs
o33395 0.35 0.2975 calib_obs
o33396 0.35 0.2975 calib_obs
o33397 0.35 0.2975 calib_obs
o33398 0.35 0.2975 calib_obs
o33399 0.35 0.2975 calib_obs
o33400 0.35 0.2975 calib_obs
o33401 0.35 0.2975 calib_obs
o33402 0.35 0.2975 calib_obs
o33403 0.35 0.2975 calib_obs
o33404 0.51 0.2975 calib_obs
o33405 0.4 0.2975 calib_obs
o33406 0.35 0.2975 calib_obs
o33407 0.81 0.2975 calib_obs
o33408 1.06 0.2975 calib_obs
o33409 1.06 0.2975 calib_obs
o33410 0.81 0.2975 calib_obs
o33411 0.7 0.2975 calib_obs
o33412 0.51 0.2975 calib_obs
o33413 0.51 0.2975 calib_obs
o33414 0.51 0.2975 calib_obs
o33415 0.35 0.2975 calib_obs
o33416 0.35 0.2975 calib_obs
o33417 0.35 0.2975 calib_obs
o33418 0.35 0.2975 calib_obs
o33419 0.35 0.2975 calib_obs
o33420 0.35 0.2975 calib_obs
o33421 0.4 0.2975 calib_obs
o33422 0.7 0.2975 calib_obs
o33423 0.51 0.2975 calib_obs
o33424 0.4 0.2975 calib_obs
o33425 0.4 0.2975 calib_obs
o33426 0.35 0.2975 calib_obs
o33427 0.35 0.2975 calib_obs
o33428 0.35 0.2975 calib_obs
o33429 0.35 0.2975 calib_obs
o33430 0.35 0.2975 calib_obs
o33431 0.3 0.2975 calib_obs
o33432 0.3 0.2975 calib_obs
o33433 0.22 0.2975 calib_obs
o33434 0.22 0.2975 calib_obs
o33435 0.22 0.2975 calib_obs
o33436 0.22 0.2975 calib_obs
o33437 0.22 0.2975 calib_obs
o33438 0.3 0.2975 calib_obs
o33439 0.3 0.2975 calib_obs
o33440 0.22 0.2975 calib_obs
o33441 0.22 0.2975 calib_obs
o33442 0.22 0.2975 calib_obs
o33443 0.22 0.2975 calib_obs
o33444 0.22 0.2975 calib_obs
o33445 0.22 0.2975 calib_obs
o33446 0.2 0.2975 calib_obs
o33447 0.2 0.2975 calib_obs
o33448 0.19 0.2975 calib_obs
o33449 0.17 0.2975 calib_obs
o33450 0.17 0.2975 calib_obs
o33451 0.12 0.2975 calib_obs
o33452 0.11 0.2975 calib_obs
o33453 0.1 0.2975 calib_obs
o33454 0.1 0.2975 calib_obs
o33455 0.15 0.2975 calib_obs
o33456 0.15 0.2975 calib_obs
o33457 0.22 0.2975 calib_obs
o33458 0.11 0.2975 calib_obs
o33459 0.49 0.2975 calib_obs
o33460 1.06 0.2975 calib_obs
o33461 1.9 0.2975 calib_obs
o33462 3.9 0.2975 calib_obs
o33463 5.7 0.2975 calib_obs
o33464 1.9 0.2975 calib_obs
o33465 1.06 0.2975 calib_obs
o33466 0.81 0.2975 calib_obs
o33467 0.7 0.2975 calib_obs
o33468 1.06 0.2975 calib_obs
o33469 1.06 0.2975 calib_obs
o33470 1.06 0.2975 calib_obs
o33471 1.06 0.2975 calib_obs
o33472 1.06 0.2975 calib_obs
o33473 0.51 0.2975 calib_obs
o33474 0.35 0.2975 calib_obs
o33475 0.35 0.2975 calib_obs
o33476 0.35 0.2975 calib_obs
o33477 0.35 0.2975 calib_obs
o33478 0.35 0.2975 calib_obs
o33479 0.35 0.2975 calib_obs
o33480 0.22 0.2975 calib_obs
o33481 0.22 0.2975 calib_obs
o33482 0.22 0.2975 calib_obs
o33483 0.22 0.2975 calib_obs
o33484 0.22 0.2975 calib_obs
o33485 0.22 0.2975 calib_obs
o33486 0.22 0.2975 calib_obs
o33487 0.35 0.2975 calib_obs
o33488 0.51 0.2975 calib_obs
o33489 0.35 0.2975 calib_obs
o33490 0.35 0.2975 calib_obs
o33491 0.3 0.2975 calib_obs
o33492 0.3 0.2975 calib_obs
o33493 0.3 0.2975 calib_obs
o33494 0.35 0.2975 calib_obs
o33495 0.7 0.2975 calib_obs
o33496 1.55 0.2975 calib_obs
o33497 1.9 0.2975 calib_obs
o33498 7.2 0.2975 calib_obs
o33499 5.0 0.2975 calib_obs
o33500 5.0 0.2975 calib_obs
o33501 3.9 0.2975 calib_obs
o33502 2.5 0.2975 calib_obs
o33503 2.5 0.2975 calib_obs
o33504 1.55 0.2975 calib_obs
o33505 1.55 0.2975 calib_obs
o33506 1.06 0.2975 calib_obs
o33507 1.06 0.2975 calib_obs
o33508 1.06 0.2975 calib_obs
o33509 0.81 0.2975 calib_obs
o33510 0.81 0.2975 calib_obs
o33511 0.7 0.2975 calib_obs
o33512 0.4 0.2975 calib_obs
o33513 0.35 0.2975 calib_obs
o33514 0.35 0.2975 calib_obs
o33515 0.35 0.2975 calib_obs
o33516 0.35 0.2975 calib_obs
o33517 0.35 0.2975 calib_obs
o33518 0.35 0.2975 calib_obs
o33519 0.7 0.2975 calib_obs
o33520 2.9 0.2975 calib_obs
o33521 10.8 0.2975 calib_obs
o33522 9.1 0.2975 calib_obs
o33523 5.7 0.2975 calib_obs
o33524 5.0 0.2975 calib_obs
o33525 15.5 0.2975 calib_obs
o33526 34.0 0.2975 calib_obs
o33527 42.0 0.2975 calib_obs
o33528 32.0 0.2975 calib_obs
o33529 30.0 0.2975 calib_obs
o33530 22.0 0.2975 calib_obs
o33531 17.7 0.2975 calib_obs
o33532 12.1 0.2975 calib_obs
o33533 10.8 0.2975 calib_obs
o33534 10.8 0.2975 calib_obs
o33535 9.1 0.2975 calib_obs
o33536 7.2 0.2975 calib_obs
o33537 6.1 0.2975 calib_obs
o33538 5.0 0.2975 calib_obs
o33539 3.9 0.2975 calib_obs
o33540 2.5 0.2975 calib_obs
o33541 2.5 0.2975 calib_obs
o33542 2.5 0.2975 calib_obs
o33543 2.5 0.2975 calib_obs
o33544 2.5 0.2975 calib_obs
o33545 24.0 0.2975 calib_obs
o33546 17.0 0.2975 calib_obs
o33547 12.7 0.2975 calib_obs
o33548 15.5 0.2975 calib_obs
o33549 5.0 0.2975 calib_obs
o33550 4.4 0.2975 calib_obs
o33551 4.4 0.2975 calib_obs
o33552 4.4 0.2975 calib_obs
o33553 7.2 0.2975 calib_obs
o33554 4.4 0.2975 calib_obs
o33555 5.0 0.2975 calib_obs
o33556 5.0 0.2975 calib_obs
o33557 5.7 0.2975 calib_obs
o33558 5.0 0.2975 calib_obs
o33559 15.5 0.2975 calib_obs
o33560 12.1 0.2975 calib_obs
o33561 8.1 0.2975 calib_obs
o33562 5.7 0.2975 calib_obs
o33563 3.9 0.2975 calib_obs
o33564 5.0 0.2975 calib_obs
o33565 5.0 0.2975 calib_obs
o33566 11.4 0.2975 calib_obs
o33567 15.5 0.2975 calib_obs
o33568 9.1 0.2975 calib_obs
o33569 6.5 0.2975 calib_obs
o33570 5.0 0.2975 calib_obs
o33571 5.0 0.2975 calib_obs
o33572 20.0 0.2975 calib_obs
o33573 14.2 0.2975 calib_obs
o33574 11.4 0.2975 calib_obs
o33575 32.0 0.2975 calib_obs
o33576 15.5 0.2975 calib_obs
o33577 12.7 0.2975 calib_obs
o33578 0.0 0.0 calib_obs
o33579 0.0 0.0 calib_obs
o33580 0.0 0.0 calib_obs
o33581 0.0 0.0 calib_obs
o33582 0.0 0.0 calib_obs
o33583 0.0 0.0 calib_obs
o33584 0.0 0.0 calib_obs
o33585 0.0 0.0 calib_obs
o33586 0.0 0.0 calib_obs
o33587 0.0 0.0 calib_obs
o33588 0.0 0.0 calib_obs
o33589 0.0 0.0 calib_obs
o33590 0.0 0.0 calib_obs
o33591 0.0 0.0 calib_obs
o33592 3.9 0.2975 calib_obs
o33593 4.2 0.2975 calib_obs
o33594 4.57 0.2975 calib_obs
o33595 4.16 0.2975 calib_obs
o33596 3.84 0.2975 calib_obs
o33597 3.47 0.2975 calib_obs
o33598 8.97 0.2975 calib_obs
o33599 9.73 0.2975 calib_obs
o33600 7.13 0.2975 calib_obs
o33601 6.8 0.2975 calib_obs
o33602 21.78 0.2975 calib_obs
o33603 7.59 0.2975 calib_obs
o33604 3.78 0.2975 calib_obs
o33605 3.75 0.2975 calib_obs
o33606 6.19 0.2975 calib_obs
o33607 12.47 0.2975 calib_obs