pcf
* control data
restart estimation
146 3653 2 0 3
1 1 double point 1 0 0
10.0 5.0 0.5 0.005 20
5.0 5.0 0.005 0
0.01
50 0.01 8 8 0.01 8
1 1 1
* parameter groups
paramGroup1 relative 0.01 0.001 switch 2.0 parabolic
paramGroup2 absolute 0.05 0.001 switch 2.0 parabolic
* parameter data
ttpi none relative 1.0 0.0 2.0 paramGroup1 1.0000 0.0000 1
lp none relative 0.9 0.8 1.0 paramGroup1 1.0000 0.0000 1
cevpam fixed relative 0.5 0.5 0.5 paramGroup1 1.0000 0.0000 1
cevpph fixed relative 45 45 45 paramGroup1 1.0000 0.0000 1
rrcs3 fixed relative 0.0002 0.0002 0.0002 paramGroup1 1.0000 0.0000 1
damp none relative 0.255 0.01 0.95 paramGroup1 1.0000 0.0000 1
rivvel none relative 0.75 0.3 1 paramGroup1 1.0000 0.0000 1
tcalt fixed relative 0.6 0.6 0.6 paramGroup1 1.0000 0.0000 1
qmean fixed relative 25 25 25 paramGroup1 1.0000 0.0000 1
epotdist fixed relative 3 3 3 paramGroup1 1.0000 0.0000 1
gldepi none relative 3.0 1.0 10.0 paramGroup1 1.0000 0.0000 1
gratp none relative 2.25 2 2.5 paramGroup1 1.0000 0.0000 1
gratk none relative 1.0 0.05 2.0 paramGroup1 1.0000 0.0000 1
sdnsnew fixed relative 0.145 0.1 0.19 paramGroup1 1.0000 0.0000 1
snowdensdt fixed relative 0.0014 0.0014 0.0014 paramGroup1 1.0000 0.0000 1
ttmp_10 fixed relative 1.0 0.0 2.0 paramGroup1 1.0000 0.0000 1
ttmp_11 none relative 1.0 0.0 2.0 paramGroup1 1.0000 0.0000 1
ttmp_12 fixed relative 1.0 0.0 2.0 paramGroup1 1.0000 0.0000 1
ttmp_13 none relative 1.0 0.0 2.0 paramGroup1 1.0000 0.0000 1
ttmp_14 none relative 1.0 -1.0 2.0 paramGroup2 1.0000 0.0000 1
ttmp_15 none relative 1.0 0.0 2.0 paramGroup1 1.0000 0.0000 1
ttmp_16 none relative 1.0 0.0 2.0 paramGroup1 1.0000 0.0000 1
ttmp_17 none relative 1.0 -2.0 2.0 paramGroup2 1.0000 0.0000 1
cmlt_10 fixed relative 2.6 0.2 5.0 paramGroup1 1.0000 0.0000 1
cmlt_11 none relative 2.6 0.2 8.0 paramGroup1 1.0000 0.0000 1
cmlt_12 fixed relative 2.6 0.2 5.0 paramGroup1 1.0000 0.0000 1
cmlt_13 none relative 2.6 0.2 5.0 paramGroup1 1.0000 0.0000 1
cmlt_14 none relative 2.6 0.2 5.0 paramGroup1 1.0000 0.0000 1
cmlt_15 none relative 2.6 0.2 5.0 paramGroup1 1.0000 0.0000 1
cmlt_16 none relative 2.6 0.2 5.0 paramGroup1 1.0000 0.0000 1
cmlt_17 none relative 2.6 0.2 8.0 paramGroup1 1.0000 0.0000 1
cevp_10 fixed relative 0.15 0.1 0.2 paramGroup1 1.0000 0.0000 1
cevp_11 none relative 0.15 0.1 0.2 paramGroup1 1.0000 0.0000 1
cevp_12 fixed relative 0.15 0.1 0.2 paramGroup1 1.0000 0.0000 1
cevp_13 none relative 0.15 0.1 0.2 paramGroup1 1.0000 0.0000 1
cevp_14 none relative 0.15 0.1 0.2 paramGroup1 1.0000 0.0000 1
cevp_15 none relative 0.15 0.1 0.2 paramGroup1 1.0000 0.0000 1
cevp_16 none relative 0.15 0.1 0.2 paramGroup1 1.0000 0.0000 1
cevp_17 none relative 0.15 0.1 0.2 paramGroup1 1.0000 0.0000 1
srrcs_10 fixed relative 0.15 0.1 0.2 paramGroup1 1.0000 0.0000 1
srrcs_11 none relative 0.15 0.1 0.2 paramGroup1 1.0000 0.0000 1
srrcs_12 fixed relative 0.15 0.1 0.2 paramGroup1 1.0000 0.0000 1
srrcs_13 none relative 0.15 0.1 0.2 paramGroup1 1.0000 0.0000 1
srrcs_14 none relative 0.15 0.1 0.2 paramGroup1 1.0000 0.0000 1
srrcs_15 none relative 0.15 0.1 0.2 paramGroup1 1.0000 0.0000 1
srrcs_16 none relative 0.15 0.1 0.2 paramGroup1 1.0000 0.0000 1
srrcs_17 none relative 0.15 0.1 0.2 paramGroup1 1.0000 0.0000 1
frost_10 fixed relative 2.0 2.0 2.0 paramGroup1 1.0000 0.0000 1
frost_11 fixed relative 2.0 2.0 2.0 paramGroup1 1.0000 0.0000 1
frost_12 fixed relative 2.0 2.0 2.0 paramGroup1 1.0000 0.0000 1
frost_13 fixed relative 2.0 2.0 2.0 paramGroup1 1.0000 0.0000 1
frost_14 fixed relative 2.0 2.0 2.0 paramGroup1 1.0000 0.0000 1
frost_15 fixed relative 2.0 2.0 2.0 paramGroup1 1.0000 0.0000 1
frost_16 fixed relative 2.0 2.0 2.0 paramGroup1 1.0000 0.0000 1
frost_17 fixed relative 2.0 2.0 2.0 paramGroup1 1.0000 0.0000 1
rrcs1_100 fixed relative 0.375 0.05 0.7 paramGroup1 1.0000 0.0000 1
rrcs1_101 none relative 0.375 0.05 0.7 paramGroup1 1.0000 0.0000 1
rrcs1_102 none relative 0.375 0.05 0.7 paramGroup1 1.0000 0.0000 1
rrcs1_103 none relative 0.375 0.05 0.7 paramGroup1 1.0000 0.0000 1
rrcs1_104 none relative 0.375 0.05 0.7 paramGroup1 1.0000 0.0000 1
rrcs1_105 none relative 0.375 0.05 1.0 paramGroup1 1.0000 0.0000 1
rrcs1_106 none relative 0.375 0.05 0.7 paramGroup1 1.0000 0.0000 1
rrcs2_100 fixed relative 0.0255 0.001 0.05 paramGroup1 1.0000 0.0000 1
rrcs2_101 none relative 0.0255 0.001 0.05 paramGroup1 1.0000 0.0000 1
rrcs2_102 none relative 0.0255 0.001 0.05 paramGroup1 1.0000 0.0000 1
rrcs2_103 none relative 0.0255 0.001 0.05 paramGroup1 1.0000 0.0000 1
rrcs2_104 none relative 0.0255 0.001 0.05 paramGroup1 1.0000 0.0000 1
rrcs2_105 none relative 0.0255 0.001 0.05 paramGroup1 1.0000 0.0000 1
rrcs2_106 none relative 0.0255 0.001 0.05 paramGroup1 1.0000 0.0000 1
trrcs_100 fixed relative 0.2 0.1 0.3 paramGroup1 1.0000 0.0000 1
trrcs_101 fixed relative 0.2 0.1 0.3 paramGroup1 1.0000 0.0000 1
trrcs_102 fixed relative 0.2 0.1 0.3 paramGroup1 1.0000 0.0000 1
trrcs_103 fixed relative 0.2 0.1 0.3 paramGroup1 1.0000 0.0000 1
trrcs_104 fixed relative 0.2 0.1 0.3 paramGroup1 1.0000 0.0000 1
trrcs_105 fixed relative 0.2 0.1 0.3 paramGroup1 1.0000 0.0000 1
trrcs_106 fixed relative 0.2 0.1 0.3 paramGroup1 1.0000 0.0000 1
mperc1_100 fixed relative 65 30 100 paramGroup1 1.0000 0.0000 1
mperc1_101 fixed relative 65 30 100 paramGroup1 1.0000 0.0000 1
mperc1_102 fixed relative 65 30 100 paramGroup1 1.0000 0.0000 1
mperc1_103 fixed relative 65 30 100 paramGroup1 1.0000 0.0000 1
mperc1_104 fixed relative 65 30 100 paramGroup1 1.0000 0.0000 1
mperc1_105 fixed relative 65 30 100 paramGroup1 1.0000 0.0000 1
mperc1_106 fixed relative 65 30 100 paramGroup1 1.0000 0.0000 1
mperc2_100 fixed relative 65 30 100 paramGroup1 1.0000 0.0000 1
mperc2_101 fixed relative 65 30 100 paramGroup1 1.0000 0.0000 1
mperc2_102 fixed relative 65 30 100 paramGroup1 1.0000 0.0000 1
mperc2_103 fixed relative 65 30 100 paramGroup1 1.0000 0.0000 1
mperc2_104 fixed relative 65 30 100 paramGroup1 1.0000 0.0000 1
mperc2_105 fixed relative 65 30 100 paramGroup1 1.0000 0.0000 1
mperc2_106 fixed relative 65 30 100 paramGroup1 1.0000 0.0000 1
sfrost_100 fixed relative 1.0 1.0 1.0 paramGroup1 1.0000 0.0000 1
sfrost_101 fixed relative 1.0 1.0 1.0 paramGroup1 1.0000 0.0000 1
sfrost_102 fixed relative 1.0 1.0 1.0 paramGroup1 1.0000 0.0000 1
sfrost_103 fixed relative 1.0 1.0 1.0 paramGroup1 1.0000 0.0000 1
sfrost_104 fixed relative 1.0 1.0 1.0 paramGroup1 1.0000 0.0000 1
sfrost_105 fixed relative 1.0 1.0 1.0 paramGroup1 1.0000 0.0000 1
sfrost_106 fixed relative 1.0 1.0 1.0 paramGroup1 1.0000 0.0000 1
macrate_100 fixed relative 0.2 0.1 0.3 paramGroup1 1.0000 0.0000 1
macrate_101 none relative 0.2 0.1 0.3 paramGroup1 1.0000 0.0000 1
macrate_102 none relative 0.2 0.1 0.3 paramGroup1 1.0000 0.0000 1
macrate_103 none relative 0.2 0.1 0.3 paramGroup1 1.0000 0.0000 1
macrate_104 none relative 0.2 0.1 0.3 paramGroup1 1.0000 0.0000 1
macrate_105 none relative 0.2 0.1 0.3 paramGroup1 1.0000 0.0000 1
macrate_106 none relative 0.2 0.1 0.3 paramGroup1 1.0000 0.0000 1
mactrinf_100 fixed relative 30 10 50 paramGroup1 1.0000 0.0000 1
mactrinf_101 none relative 30 10 50 paramGroup1 1.0000 0.0000 1
mactrinf_102 none relative 30 10 50 paramGroup1 1.0000 0.0000 1
mactrinf_103 none relative 30 10 50 paramGroup1 1.0000 0.0000 1
mactrinf_104 none relative 30 10 50 paramGroup1 1.0000 0.0000 1
mactrinf_105 none relative 30 10 50 paramGroup1 1.0000 0.0000 1
mactrinf_106 none relative 30 10 50 paramGroup1 1.0000 0.0000 1
mactrsm_100 fixed relative 0.675 0.5 0.85 paramGroup1 1.0000 0.0000 1
mactrsm_101 fixed relative 0.675 0.5 0.85 paramGroup1 1.0000 0.0000 1
mactrsm_102 fixed relative 0.675 0.5 0.85 paramGroup1 1.0000 0.0000 1
mactrsm_103 fixed relative 0.675 0.5 0.85 paramGroup1 1.0000 0.0000 1
mactrsm_104 fixed relative 0.675 0.5 0.85 paramGroup1 1.0000 0.0000 1
mactrsm_105 fixed relative 0.675 0.5 0.85 paramGroup1 1.0000 0.0000 1
mactrsm_106 fixed relative 0.675 0.5 0.85 paramGroup1 1.0000 0.0000 1
srrate_100 fixed relative 0.15 0.1 0.2 paramGroup1 1.0000 0.0000 1
srrate_101 none relative 0.15 0.1 0.2 paramGroup1 1.0000 0.0000 1
srrate_102 none relative 0.15 0.1 0.2 paramGroup1 1.0000 0.0000 1
srrate_103 none relative 0.15 0.1 0.2 paramGroup1 1.0000 0.0000 1
srrate_104 none relative 0.15 0.1 0.2 paramGroup1 1.0000 0.0000 1
srrate_105 none relative 0.15 0.1 0.2 paramGroup1 1.0000 0.0000 1
srrate_106 none relative 0.15 0.1 0.2 paramGroup1 1.0000 0.0000 1
wcwp_100 fixed relative 0.07 0.04 0.1 paramGroup1 1.0000 0.0000 1
wcwp_101 none relative 0.07 0.04 0.1 paramGroup1 1.0000 0.0000 1
wcwp_102 none relative 0.07 0.04 0.1 paramGroup1 1.0000 0.0000 1
wcwp_103 none relative 0.07 0.04 0.1 paramGroup1 1.0000 0.0000 1
wcwp_104 none relative 0.07 0.04 0.1 paramGroup1 1.0000 0.0000 1
wcwp_105 none relative 0.07 0.04 0.1 paramGroup1 1.0000 0.0000 1
wcwp_106 none relative 0.07 0.04 0.1 paramGroup1 1.0000 0.0000 1
wcfc_100 fixed relative 0.25 0.1 0.4 paramGroup1 1.0000 0.0000 1
wcfc_101 none relative 0.25 0.1 0.4 paramGroup1 1.0000 0.0000 1
wcfc_102 none relative 0.25 0.1 0.5 paramGroup1 1.0000 0.0000 1
wcfc_103 none relative 0.25 0.1 0.4 paramGroup1 1.0000 0.0000 1
wcfc_104 none relative 0.25 0.1 0.4 paramGroup1 1.0000 0.0000 1
wcfc_105 none relative 0.25 0.1 0.4 paramGroup1 1.0000 0.0000 1
wcfc_106 none relative 0.25 0.1 0.4 paramGroup1 1.0000 0.0000 1
wcep_100 fixed relative 0.055 0.01 0.1 paramGroup1 1.0000 0.0000 1
wcep_101 none relative 0.055 0.01 0.1 paramGroup1 1.0000 0.0000 1
wcep_102 none relative 0.055 0.01 0.1 paramGroup1 1.0000 0.0000 1
wcep_103 none relative 0.055 0.01 0.1 paramGroup1 1.0000 0.0000 1
wcep_104 none relative 0.055 0.01 0.35 paramGroup1 1.0000 0.0000 1
wcep_105 none relative 0.055 0.01 0.35 paramGroup1 1.0000 0.0000 1
wcep_106 none relative 0.055 0.01 0.1 paramGroup1 1.0000 0.0000 1
* observation groups
warmup_obs
calib_obs
valid_obs
* observation data
o40184 0.0 0.0 warmup_obs
o40185 0.0 0.0 warmup_obs
o40186 0.0 0.0 warmup_obs
o40187 0.0 0.0 warmup_obs
o40188 0.0 0.0 warmup_obs
o40189 0.0 0.0 warmup_obs
o40190 0.0 0.0 warmup_obs
o40191 0.0 0.0 warmup_obs
o40192 0.0 0.0 warmup_obs
o40193 0.0 0.0 warmup_obs
o40194 0.0 0.0 warmup_obs
o40195 0.0 0.0 warmup_obs
o40196 0.0 0.0 warmup_obs
o40197 0.0 0.0 warmup_obs
o40198 0.0 0.0 warmup_obs
o40199 0.0 0.0 warmup_obs
o40200 0.0 0.0 warmup_obs
o40201 0.0 0.0 warmup_obs
o40202 0.0 0.0 warmup_obs
o40203 0.0 0.0 warmup_obs
o40204 0.0 0.0 warmup_obs
o40205 0.0 0.0 warmup_obs
o40206 0.0 0.0 warmup_obs
o40207 0.0 0.0 warmup_obs
o40208 0.0 0.0 warmup_obs
o40209 0.0 0.0 warmup_obs
o40210 0.0 0.0 warmup_obs
o40211 0.0 0.0 warmup_obs
o40212 0.0 0.0 warmup_obs
o40213 0.0 0.0 warmup_obs
o40214 0.0 0.0 warmup_obs
o40215 0.0 0.0 warmup_obs
o40216 0.0 0.0 warmup_obs
o40217 0.0 0.0 warmup_obs
o40218 0.0 0.0 warmup_obs
o40219 0.0 0.0 warmup_obs
o40220 0.0 0.0 warmup_obs
o40221 0.0 0.0 warmup_obs
o40222 0.0 0.0 warmup_obs
o40223 0.0 0.0 warmup_obs
o40224 0.0 0.0 warmup_obs
o40225 0.0 0.0 warmup_obs
o40226 0.0 0.0 warmup_obs
o40227 0.0 0.0 warmup_obs
o40228 0.0 0.0 warmup_obs
o40229 0.0 0.0 warmup_obs
o40230 0.0 0.0 warmup_obs
o40231 0.0 0.0 warmup_obs
o40232 0.0 0.0 warmup_obs
o40233 0.0 0.0 warmup_obs
o40234 0.0 0.0 warmup_obs
o40235 0.0 0.0 warmup_obs
o40236 0.0 0.0 warmup_obs
o40237 0.0 0.0 warmup_obs
o40238 0.0 0.0 warmup_obs
o40239 0.0 0.0 warmup_obs
o40240 0.0 0.0 warmup_obs
o40241 0.0 0.0 warmup_obs
o40242 0.0 0.0 warmup_obs
o40243 0.0 0.0 warmup_obs
o40244 0.0 0.0 warmup_obs
o40245 0.0 0.0 warmup_obs
o40246 0.0 0.0 warmup_obs
o40247 0.0 0.0 warmup_obs
o40248 0.0 0.0 warmup_obs
o40249 0.0 0.0 warmup_obs
o40250 0.0 0.0 warmup_obs
o40251 0.0 0.0 warmup_obs
o40252 0.0 0.0 warmup_obs
o40253 0.0 0.0 warmup_obs
o40254 0.0 0.0 warmup_obs
o40255 0.0 0.0 warmup_obs
o40256 0.0 0.0 warmup_obs
o40257 0.0 0.0 warmup_obs
o40258 0.0 0.0 warmup_obs
o40259 0.0 0.0 warmup_obs
o40260 0.0 0.0 warmup_obs
o40261 0.0 0.0 warmup_obs
o40262 0.0 0.0 warmup_obs
o40263 0.0 0.0 warmup_obs
o40264 0.0 0.0 warmup_obs
o40265 0.0 0.0 warmup_obs
o40266 0.0 0.0 warmup_obs
o40267 0.0 0.0 warmup_obs
o40268 0.0 0.0 warmup_obs
o40269 0.0 0.0 warmup_obs
o40270 0.0 0.0 warmup_obs
o40271 0.0 0.0 warmup_obs
o40272 0.0 0.0 warmup_obs
o40273 0.0 0.0 warmup_obs
o40274 0.0 0.0 warmup_obs
o40275 0.0 0.0 warmup_obs
o40276 0.0 0.0 warmup_obs
o40277 0.0 0.0 warmup_obs
o40278 0.0 0.0 warmup_obs
o40279 0.0 0.0 warmup_obs
o40280 0.0 0.0 warmup_obs
o40281 0.0 0.0 warmup_obs
o40282 0.0 0.0 warmup_obs
o40283 0.0 0.0 warmup_obs
o40284 0.0 0.0 warmup_obs
o40285 0.0 0.0 warmup_obs
o40286 0.0 0.0 warmup_obs
o40287 0.0 0.0 warmup_obs
o40288 0.0 0.0 warmup_obs
o40289 0.0 0.0 warmup_obs
o40290 0.0 0.0 warmup_obs
o40291 0.0 0.0 warmup_obs
o40292 0.0 0.0 warmup_obs
o40293 0.0 0.0 warmup_obs
o40294 0.0 0.0 warmup_obs
o40295 0.0 0.0 warmup_obs
o40296 0.0 0.0 warmup_obs
o40297 0.0 0.0 warmup_obs
o40298 0.0 0.0 warmup_obs
o40299 0.0 0.0 warmup_obs
o40300 0.0 0.0 warmup_obs
o40301 0.0 0.0 warmup_obs
o40302 0.0 0.0 warmup_obs
o40303 0.0 0.0 warmup_obs
o40304 0.0 0.0 warmup_obs
o40305 0.0 0.0 warmup_obs
o40306 0.0 0.0 warmup_obs
o40307 0.0 0.0 warmup_obs
o40308 0.0 0.0 warmup_obs
o40309 0.0 0.0 warmup_obs
o40310 0.0 0.0 warmup_obs
o40311 0.0 0.0 warmup_obs
o40312 0.0 0.0 warmup_obs
o40313 0.0 0.0 warmup_obs
o40314 0.0 0.0 warmup_obs
o40315 0.0 0.0 warmup_obs
o40316 0.0 0.0 warmup_obs
o40317 0.0 0.0 warmup_obs
o40318 0.0 0.0 warmup_obs
o40319 0.0 0.0 warmup_obs
o40320 0.0 0.0 warmup_obs
o40321 0.0 0.0 warmup_obs
o40322 0.0 0.0 warmup_obs
o40323 0.0 0.0 warmup_obs
o40324 0.0 0.0 warmup_obs
o40325 0.0 0.0 warmup_obs
o40326 0.0 0.0 warmup_obs
o40327 0.0 0.0 warmup_obs
o40328 0.0 0.0 warmup_obs
o40329 0.0 0.0 warmup_obs
o40330 0.0 0.0 warmup_obs
o40331 0.0 0.0 warmup_obs
o40332 0.0 0.0 warmup_obs
o40333 0.0 0.0 warmup_obs
o40334 0.0 0.0 warmup_obs
o40335 0.0 0.0 warmup_obs
o40336 0.0 0.0 warmup_obs
o40337 0.0 0.0 warmup_obs
o40338 0.0 0.0 warmup_obs
o40339 0.0 0.0 warmup_obs
o40340 0.0 0.0 warmup_obs
o40341 0.0 0.0 warmup_obs
o40342 0.0 0.0 warmup_obs
o40343 0.0 0.0 warmup_obs
o40344 0.0 0.0 warmup_obs
o40345 0.0 0.0 warmup_obs
o40346 0.0 0.0 warmup_obs
o40347 0.0 0.0 warmup_obs
o40348 0.0 0.0 warmup_obs
o40349 0.0 0.0 warmup_obs
o40350 0.0 0.0 warmup_obs
o40351 0.0 0.0 warmup_obs
o40352 0.0 0.0 warmup_obs
o40353 0.0 0.0 warmup_obs
o40354 0.0 0.0 warmup_obs
o40355 0.0 0.0 warmup_obs
o40356 0.0 0.0 warmup_obs
o40357 0.0 0.0 warmup_obs
o40358 0.0 0.0 warmup_obs
o40359 0.0 0.0 warmup_obs
o40360 0.0 0.0 warmup_obs
o40361 0.0 0.0 warmup_obs
o40362 0.0 0.0 warmup_obs
o40363 0.0 0.0 warmup_obs
o40364 0.0 0.0 warmup_obs
o40365 0.0 0.0 warmup_obs
o40366 0.0 0.0 warmup_obs
o40367 0.0 0.0 warmup_obs
o40368 0.0 0.0 warmup_obs
o40369 0.0 0.0 warmup_obs
o40370 0.0 0.0 warmup_obs
o40371 0.0 0.0 warmup_obs
o40372 0.0 0.0 warmup_obs
o40373 0.0 0.0 warmup_obs
o40374 0.0 0.0 warmup_obs
o40375 0.0 0.0 warmup_obs
o40376 0.0 0.0 warmup_obs
o40377 0.0 0.0 warmup_obs
o40378 0.0 0.0 warmup_obs
o40379 0.0 0.0 warmup_obs
o40380 0.0 0.0 warmup_obs
o40381 0.0 0.0 warmup_obs
o40382 0.0 0.0 warmup_obs
o40383 0.0 0.0 warmup_obs
o40384 0.0 0.0 warmup_obs
o40385 0.0 0.0 warmup_obs
o40386 0.0 0.0 warmup_obs
o40387 0.0 0.0 warmup_obs
o40388 0.0 0.0 warmup_obs
o40389 0.0 0.0 warmup_obs
o40390 0.0 0.0 warmup_obs
o40391 0.0 0.0 warmup_obs
o40392 0.0 0.0 warmup_obs
o40393 0.0 0.0 warmup_obs
o40394 0.0 0.0 warmup_obs
o40395 0.0 0.0 warmup_obs
o40396 0.0 0.0 warmup_obs
o40397 0.0 0.0 warmup_obs
o40398 0.0 0.0 warmup_obs
o40399 0.0 0.0 warmup_obs
o40400 0.0 0.0 warmup_obs
o40401 0.0 0.0 warmup_obs
o40402 0.0 0.0 warmup_obs
o40403 0.0 0.0 warmup_obs
o40404 0.0 0.0 warmup_obs
o40405 0.0 0.0 warmup_obs
o40406 0.0 0.0 warmup_obs
o40407 0.0 0.0 warmup_obs
o40408 0.0 0.0 warmup_obs
o40409 0.0 0.0 warmup_obs
o40410 0.0 0.0 warmup_obs
o40411 0.0 0.0 warmup_obs
o40412 0.0 0.0 warmup_obs
o40413 0.0 0.0 warmup_obs
o40414 0.0 0.0 warmup_obs
o40415 0.0 0.0 warmup_obs
o40416 0.0 0.0 warmup_obs
o40417 0.0 0.0 warmup_obs
o40418 0.0 0.0 warmup_obs
o40419 0.0 0.0 warmup_obs
o40420 0.0 0.0 warmup_obs
o40421 0.0 0.0 warmup_obs
o40422 0.0 0.0 warmup_obs
o40423 0.0 0.0 warmup_obs
o40424 0.0 0.0 warmup_obs
o40425 0.0 0.0 warmup_obs
o40426 0.0 0.0 warmup_obs
o40427 0.0 0.0 warmup_obs
o40428 0.0 0.0 warmup_obs
o40429 0.0 0.0 warmup_obs
o40430 0.0 0.0 warmup_obs
o40431 0.0 0.0 warmup_obs
o40432 0.0 0.0 warmup_obs
o40433 0.0 0.0 warmup_obs
o40434 0.0 0.0 warmup_obs
o40435 0.0 0.0 warmup_obs
o40436 0.0 0.0 warmup_obs
o40437 0.0 0.0 warmup_obs
o40438 0.0 0.0 warmup_obs
o40439 0.0 0.0 warmup_obs
o40440 0.0 0.0 warmup_obs
o40441 0.0 0.0 warmup_obs
o40442 0.0 0.0 warmup_obs
o40443 0.0 0.0 warmup_obs
o40444 0.0 0.0 warmup_obs
o40445 0.0 0.0 warmup_obs
o40446 0.0 0.0 warmup_obs
o40447 0.0 0.0 warmup_obs
o40448 0.0 0.0 warmup_obs
o40449 0.0 0.0 warmup_obs
o40450 0.0 0.0 warmup_obs
o40451 0.0 0.0 warmup_obs
o40452 0.0 0.0 warmup_obs
o40453 0.0 0.0 warmup_obs
o40454 0.0 0.0 warmup_obs
o40455 0.0 0.0 warmup_obs
o40456 0.0 0.0 warmup_obs
o40457 0.0 0.0 warmup_obs
o40458 0.0 0.0 warmup_obs
o40459 0.0 0.0 warmup_obs
o40460 0.0 0.0 warmup_obs
o40461 0.0 0.0 warmup_obs
o40462 0.0 0.0 warmup_obs
o40463 0.0 0.0 warmup_obs
o40464 0.0 0.0 warmup_obs
o40465 0.0 0.0 warmup_obs
o40466 0.0 0.0 warmup_obs
o40467 0.0 0.0 warmup_obs
o40468 0.0 0.0 warmup_obs
o40469 0.0 0.0 warmup_obs
o40470 0.0 0.0 warmup_obs
o40471 0.0 0.0 warmup_obs
o40472 0.0 0.0 warmup_obs
o40473 0.0 0.0 warmup_obs
o40474 0.0 0.0 warmup_obs
o40475 0.0 0.0 warmup_obs
o40476 0.0 0.0 warmup_obs
o40477 0.0 0.0 warmup_obs
o40478 0.0 0.0 warmup_obs
o40479 0.0 0.0 warmup_obs
o40480 0.0 0.0 warmup_obs
o40481 0.0 0.0 warmup_obs
o40482 0.0 0.0 warmup_obs
o40483 0.0 0.0 warmup_obs
o40484 0.0 0.0 warmup_obs
o40485 0.0 0.0 warmup_obs
o40486 0.0 0.0 warmup_obs
o40487 0.0 0.0 warmup_obs
o40488 0.0 0.0 warmup_obs
o40489 0.0 0.0 warmup_obs
o40490 0.0 0.0 warmup_obs
o40491 0.0 0.0 warmup_obs
o40492 0.0 0.0 warmup_obs
o40493 0.0 0.0 warmup_obs
o40494 0.0 0.0 warmup_obs
o40495 0.0 0.0 warmup_obs
o40496 0.0 0.0 warmup_obs
o40497 0.0 0.0 warmup_obs
o40498 0.0 0.0 warmup_obs
o40499 0.0 0.0 warmup_obs
o40500 0.0 0.0 warmup_obs
o40501 0.0 0.0 warmup_obs
o40502 0.0 0.0 warmup_obs
o40503 0.0 0.0 warmup_obs
o40504 0.0 0.0 warmup_obs
o40505 0.0 0.0 warmup_obs
o40506 0.0 0.0 warmup_obs
o40507 0.0 0.0 warmup_obs
o40508 0.0 0.0 warmup_obs
o40509 0.0 0.0 warmup_obs
o40510 0.0 0.0 warmup_obs
o40511 0.0 0.0 warmup_obs
o40512 0.0 0.0 warmup_obs
o40513 0.0 0.0 warmup_obs
o40514 0.0 0.0 warmup_obs
o40515 0.0 0.0 warmup_obs
o40516 0.0 0.0 warmup_obs
o40517 0.0 0.0 warmup_obs
o40518 0.0 0.0 warmup_obs
o40519 0.0 0.0 warmup_obs
o40520 0.0 0.0 warmup_obs
o40521 0.0 0.0 warmup_obs
o40522 0.0 0.0 warmup_obs
o40523 0.0 0.0 warmup_obs
o40524 0.0 0.0 warmup_obs
o40525 0.0 0.0 warmup_obs
o40526 0.0 0.0 warmup_obs
o40527 0.0 0.0 warmup_obs
o40528 0.0 0.0 warmup_obs
o40529 0.0 0.0 warmup_obs
o40530 0.0 0.0 warmup_obs
o40531 0.0 0.0 warmup_obs
o40532 0.0 0.0 warmup_obs
o40533 0.0 0.0 warmup_obs
o40534 0.0 0.0 warmup_obs
o40535 0.0 0.0 warmup_obs
o40536 0.0 0.0 warmup_obs
o40537 0.0 0.0 warmup_obs
o40538 0.0 0.0 warmup_obs
o40539 0.0 0.0 warmup_obs
o40540 0.0 0.0 warmup_obs
o40541 0.0 0.0 warmup_obs
o40542 0.0 0.0 warmup_obs
o40543 0.0 0.0 warmup_obs
o40544 0.0 0.0 warmup_obs
o40545 0.0 0.0 warmup_obs
o40546 0.0 0.0 warmup_obs
o40547 0.0 0.0 warmup_obs
o40548 0.0 0.0 warmup_obs
o40549 0.0 0.0 warmup_obs
o40550 0.0 0.0 calib_obs
o40551 0.0 0.0 calib_obs
o40552 0.0 0.0 calib_obs
o40553 0.0 0.0 calib_obs
o40554 0.0 0.0 calib_obs
o40555 0.0 0.0 calib_obs
o40556 0.0 0.0 calib_obs
o40557 0.0 0.0 calib_obs
o40558 0.0 0.0 calib_obs
o40559 0.0 0.0 calib_obs
o40560 0.0 0.0 calib_obs
o40561 0.0 0.0 calib_obs
o40562 0.01 0.05 calib_obs
o40563 0.0 0.0 calib_obs
o40564 0.0 0.0 calib_obs
o40565 0.0 0.0 calib_obs
o40566 0.0 0.0 calib_obs
o40567 0.0 0.0 calib_obs
o40568 0.0 0.0 calib_obs
o40569 0.0 0.0 calib_obs
o40570 0.0 0.0 calib_obs
o40571 0.0 0.0 calib_obs
o40572 0.0 0.0 calib_obs
o40573 0.0 0.0 calib_obs
o40574 0.0 0.0 calib_obs
o40575 0.0 0.0 calib_obs
o40576 0.0 0.0 calib_obs
o40577 0.0 0.0 calib_obs
o40578 0.0 0.0 calib_obs
o40579 0.0 0.0 calib_obs
o40580 0.0 0.0 calib_obs
o40581 0.0 0.0 calib_obs
o40582 0.0 0.0 calib_obs
o40583 0.0 0.0 calib_obs
o40584 0.0 0.0 calib_obs
o40585 0.0 0.0 calib_obs
o40586 0.0 0.0 calib_obs
o40587 0.0 0.0 calib_obs
o40588 0.0 0.0 calib_obs
o40589 0.0 0.0 calib_obs
o40590 0.0 0.0 calib_obs
o40591 0.0 0.0 calib_obs
o40592 0.0 0.0 calib_obs
o40593 0.0 0.0 calib_obs
o40594 0.0 0.0 calib_obs
o40595 0.0 0.0 calib_obs
o40596 0.0 0.0 calib_obs
o40597 0.0 0.0 calib_obs
o40598 0.0 0.0 calib_obs
o40599 0.0 0.0 calib_obs
o40600 0.0 0.0 calib_obs
o40601 0.0 0.0 calib_obs
o40602 0.0 0.0 calib_obs
o40603 0.0 0.0 calib_obs
o40604 0.0 0.0 calib_obs
o40605 0.0 0.0 calib_obs
o40606 0.0 0.0 calib_obs
o40607 0.0 0.0 calib_obs
o40608 0.0 0.0 calib_obs
o40609 0.0 0.0 calib_obs
o40610 0.0 0.0 calib_obs
o40611 0.0 0.0 calib_obs
o40612 0.0 0.0 calib_obs
o40613 0.0 0.0 calib_obs
o40614 0.0 0.0 calib_obs
o40615 0.0 0.0 calib_obs
o40616 0.0 0.0 calib_obs
o40617 0.0 0.0 calib_obs
o40618 0.0 0.0 calib_obs
o40619 0.0 0.0 calib_obs
o40620 0.0 0.0 calib_obs
o40621 0.0 0.0 calib_obs
o40622 0.0 0.0 calib_obs
o40623 0.0 0.0 calib_obs
o40624 0.0 0.0 calib_obs
o40625 0.0 0.0 calib_obs
o40626 0.0 0.0 calib_obs
o40627 0.0 0.0 calib_obs
o40628 0.0 0.0 calib_obs
o40629 0.0 0.0 calib_obs
o40630 0.8 0.05 calib_obs
o40631 0.0 0.0 calib_obs
o40632 0.0 0.0 calib_obs
o40633 0.0 0.0 calib_obs
o40634 0.0 0.0 calib_obs
o40635 0.0 0.0 calib_obs
o40636 0.0 0.0 calib_obs
o40637 0.0 0.0 calib_obs
o40638 0.0 0.0 calib_obs
o40639 0.0 0.0 calib_obs
o40640 0.0 0.0 calib_obs
o40641 0.0 0.0 calib_obs
o40642 0.0 0.0 calib_obs
o40643 0.0 0.0 calib_obs
o40644 0.0 0.0 calib_obs
o40645 0.0 0.0 calib_obs
o40646 0.0 0.0 calib_obs
o40647 0.0 0.0 calib_obs
o40648 0.0 0.0 calib_obs
o40649 0.0 0.0 calib_obs
o40650 0.0 0.0 calib_obs
o40651 0.04 0.05 calib_obs
o40652 0.0 0.0 calib_obs
o40653 0.0 0.0 calib_obs
o40654 0.0 0.0 calib_obs
o40655 0.0 0.0 calib_obs
o40656 0.0 0.0 calib_obs
o40657 0.0 0.0 calib_obs
o40658 0.0 0.0 calib_obs
o40659 0.0 0.0 calib_obs
o40660 0.0 0.0 calib_obs
o40661 0.0 0.0 calib_obs
o40662 0.0 0.0 calib_obs
o40663 0.0 0.0 calib_obs
o40664 0.0 0.0 calib_obs
o40665 0.0 0.0 calib_obs
o40666 0.0 0.0 calib_obs
o40667 0.0 0.0 calib_obs
o40668 0.0 0.0 calib_obs
o40669 0.0 0.0 calib_obs
o40670 0.0 0.0 calib_obs
o40671 0.0 0.0 calib_obs
o40672 0.0 0.0 calib_obs
o40673 0.0 0.0 calib_obs
o40674 0.0 0.0 calib_obs
o40675 0.0 0.0 calib_obs
o40676 0.0 0.0 calib_obs
o40677 0.0 0.0 calib_obs
o40678 0.0 0.0 calib_obs
o40679 0.0 0.0 calib_obs
o40680 0.0 0.0 calib_obs
o40681 0.0 0.0 calib_obs
o40682 0.0 0.0 calib_obs
o40683 0.0 0.0 calib_obs
o40684 0.0 0.0 calib_obs
o40685 0.0 0.0 calib_obs
o40686 0.0 0.0 calib_obs
o40687 0.0 0.0 calib_obs
o40688 0.0 0.0 calib_obs
o40689 0.0 0.0 calib_obs
o40690 0.0 0.0 calib_obs
o40691 0.0 0.0 calib_obs
o40692 0.0 0.0 calib_obs
o40693 0.0 0.0 calib_obs
o40694 0.0 0.0 calib_obs
o40695 0.0 0.0 calib_obs
o40696 0.0 0.0 calib_obs
o40697 0.0 0.0 calib_obs
o40698 0.0 0.0 calib_obs
o40699 0.0 0.0 calib_obs
o40700 0.0 0.0 calib_obs
o40701 0.0 0.0 calib_obs
o40702 0.0 0.0 calib_obs
o40703 0.0 0.0 calib_obs
o40704 0.0 0.0 calib_obs
o40705 0.0 0.0 calib_obs
o40706 0.0 0.0 calib_obs
o40707 0.0 0.0 calib_obs
o40708 0.0 0.0 calib_obs
o40709 0.0 0.0 calib_obs
o40710 0.0 0.0 calib_obs
o40711 0.0 0.0 calib_obs
o40712 0.0 0.0 calib_obs
o40713 0.0 0.0 calib_obs
o40714 0.0 0.0 calib_obs
o40715 0.0 0.0 calib_obs
o40716 0.0 0.0 calib_obs
o40717 0.0 0.0 calib_obs
o40718 0.0 0.0 calib_obs
o40719 0.0 0.0 calib_obs
o40720 0.0 0.0 calib_obs
o40721 0.0 0.0 calib_obs
o40722 0.0 0.0 calib_obs
o40723 0.0 0.0 calib_obs
o40724 0.0 0.0 calib_obs
o40725 0.0 0.0 calib_obs
o40726 0.0 0.0 calib_obs
o40727 0.0 0.0 calib_obs
o40728 0.0 0.0 calib_obs
o40729 0.0 0.0 calib_obs
o40730 0.0 0.0 calib_obs
o40731 0.0 0.0 calib_obs
o40732 0.0 0.0 calib_obs
o40733 0.0 0.0 calib_obs
o40734 0.0 0.0 calib_obs
o40735 0.0 0.0 calib_obs
o40736 0.0 0.0 calib_obs
o40737 0.0 0.0 calib_obs
o40738 0.0 0.0 calib_obs
o40739 0.0 0.0 calib_obs
o40740 0.0 0.0 calib_obs
o40741 0.0 0.0 calib_obs
o40742 0.0 0.0 calib_obs
o40743 0.0 0.0 calib_obs
o40744 0.0 0.0 calib_obs
o40745 0.0 0.0 calib_obs
o40746 0.0 0.0 calib_obs
o40747 0.0 0.0 calib_obs
o40748 0.0 0.0 calib_obs
o40749 0.0 0.0 calib_obs
o40750 0.0 0.0 calib_obs
o40751 0.0 0.0 calib_obs
o40752 0.0 0.0 calib_obs
o40753 0.0 0.0 calib_obs
o40754 0.0 0.0 calib_obs
o40755 0.0 0.0 calib_obs
o40756 0.0 0.0 calib_obs
o40757 0.0 0.0 calib_obs
o40758 0.0 0.0 calib_obs
o40759 0.0 0.0 calib_obs
o40760 0.0 0.0 calib_obs
o40761 0.0 0.0 calib_obs
o40762 0.0 0.0 calib_obs
o40763 0.0 0.0 calib_obs
o40764 0.0 0.0 calib_obs
o40765 0.0 0.0 calib_obs
o40766 0.0 0.0 calib_obs
o40767 0.0 0.0 calib_obs
o40768 0.0 0.0 calib_obs
o40769 0.0 0.0 calib_obs
o40770 0.0 0.0 calib_obs
o40771 0.0 0.0 calib_obs
o40772 0.0 0.0 calib_obs
o40773 0.0 0.0 calib_obs
o40774 0.0 0.0 calib_obs
o40775 0.0 0.0 calib_obs
o40776 0.0 0.0 calib_obs
o40777 0.0 0.0 calib_obs
o40778 0.0 0.0 calib_obs
o40779 0.0 0.0 calib_obs
o40780 0.0 0.0 calib_obs
o40781 0.0 0.0 calib_obs
o40782 0.0 0.0 calib_obs
o40783 0.0 0.0 calib_obs
o40784 0.0 0.0 calib_obs
o40785 0.0 0.0 calib_obs
o40786 0.0 0.0 calib_obs
o40787 0.0 0.0 calib_obs
o40788 0.0 0.0 calib_obs
o40789 0.0 0.0 calib_obs
o40790 0.0 0.0 calib_obs
o40791 0.0 0.0 calib_obs
o40792 0.0 0.0 calib_obs
o40793 0.0 0.0 calib_obs
o40794 0.0 0.0 calib_obs
o40795 0.0 0.0 calib_obs
o40796 0.0 0.0 calib_obs
o40797 0.0 0.0 calib_obs
o40798 0.0 0.0 calib_obs
o40799 0.0 0.0 calib_obs
o40800 0.0 0.0 calib_obs
o40801 0.0 0.0 calib_obs
o40802 0.0 0.0 calib_obs
o40803 0.0 0.0 calib_obs
o40804 0.0 0.0 calib_obs
o40805 0.06 0.05 calib_obs
o40806 0.0 0.0 calib_obs
o40807 0.0 0.0 calib_obs
o40808 0.0 0.0 calib_obs
o40809 0.0 0.0 calib_obs
o40810 0.0 0.0 calib_obs
o40811 0.0 0.0 calib_obs
o40812 0.0 0.0 calib_obs
o40813 0.0 0.0 calib_obs
o40814 0.0 0.0 calib_obs
o40815 0.0 0.0 calib_obs
o40816 0.0 0.0 calib_obs
o40817 0.0 0.0 calib_obs
o40818 0.0 0.0 calib_obs
o40819 0.0 0.0 calib_obs
o40820 0.0 0.0 calib_obs
o40821 0.0 0.0 calib_obs
o40822 0.0 0.0 calib_obs
o40823 0.0 0.0 calib_obs
o40824 0.0 0.0 calib_obs
o40825 0.0 0.0 calib_obs
o40826 0.0 0.0 calib_obs
o40827 0.0 0.0 calib_obs
o40828 0.0 0.0 calib_obs
o40829 0.0 0.0 calib_obs
o40830 0.0 0.0 calib_obs
o40831 0.0 0.0 calib_obs
o40832 0.0 0.0 calib_obs
o40833 0.0 0.0 calib_obs
o40834 0.0 0.0 calib_obs
o40835 0.0 0.0 calib_obs
o40836 0.0 0.0 calib_obs
o40837 0.0 0.0 calib_obs
o40838 0.0 0.0 calib_obs
o40839 0.0 0.0 calib_obs
o40840 0.0 0.0 calib_obs
o40841 0.0 0.0 calib_obs
o40842 0.0 0.0 calib_obs
o40843 0.0 0.0 calib_obs
o40844 0.0 0.0 calib_obs
o40845 0.0 0.0 calib_obs
o40846 0.0 0.0 calib_obs
o40847 0.0 0.0 calib_obs
o40848 0.0 0.0 calib_obs
o40849 0.0 0.0 calib_obs
o40850 0.0 0.0 calib_obs
o40851 0.0 0.0 calib_obs
o40852 0.0 0.0 calib_obs
o40853 0.0 0.0 calib_obs
o40854 0.0 0.0 calib_obs
o40855 0.0 0.0 calib_obs
o40856 0.0 0.0 calib_obs
o40857 0.0 0.0 calib_obs
o40858 0.0 0.0 calib_obs
o40859 0.0 0.0 calib_obs
o40860 0.0 0.0 calib_obs
o40861 0.0 0.0 calib_obs
o40862 0.0 0.0 calib_obs
o40863 0.0 0.0 calib_obs
o40864 0.0 0.0 calib_obs
o40865 0.0 0.0 calib_obs
o40866 0.0 0.0 calib_obs
o40867 0.0 0.0 calib_obs
o40868 0.0 0.0 calib_obs
o40869 0.0 0.0 calib_obs
o40870 0.0 0.0 calib_obs
o40871 0.0 0.0 calib_obs
o40872 0.0 0.0 calib_obs
o40873 0.0 0.0 calib_obs
o40874 0.0 0.0 calib_obs
o40875 0.0 0.0 calib_obs
o40876 0.0 0.0 calib_obs
o40877 0.0 0.0 calib_obs
o40878 0.0 0.0 calib_obs
o40879 0.0 0.0 calib_obs
o40880 0.0 0.0 calib_obs
o40881 0.0 0.0 calib_obs
o40882 0.0 0.0 calib_obs
o40883 0.0 0.0 calib_obs
o40884 0.0 0.0 calib_obs
o40885 0.0 0.0 calib_obs
o40886 0.0 0.0 calib_obs
o40887 0.0 0.0 calib_obs
o40888 0.0 0.0 calib_obs
o40889 0.0 0.0 calib_obs
o40890 0.0 0.0 calib_obs
o40891 0.0 0.0 calib_obs
o40892 0.0 0.0 calib_obs
o40893 0.0 0.0 calib_obs
o40894 0.0 0.0 calib_obs
o40895 0.0 0.0 calib_obs
o40896 0.0 0.0 calib_obs
o40897 0.0 0.0 calib_obs
o40898 0.0 0.0 calib_obs
o40899 0.0 0.0 calib_obs
o40900 0.0 0.0 calib_obs
o40901 0.0 0.0 calib_obs
o40902 0.0 0.0 calib_obs
o40903 0.21 0.05 calib_obs
o40904 0.0 0.0 calib_obs
o40905 0.0 0.0 calib_obs
o40906 0.0 0.0 calib_obs
o40907 0.0 0.0 calib_obs
o40908 0.0 0.0 calib_obs
o40909 0.0 0.0 calib_obs
o40910 0.0 0.0 calib_obs
o40911 0.0 0.0 calib_obs
o40912 0.0 0.0 calib_obs
o40913 0.0 0.0 calib_obs
o40914 0.0 0.0 calib_obs
o40915 0.0 0.0 calib_obs
o40916 0.0 0.0 calib_obs
o40917 0.0 0.0 calib_obs
o40918 0.0 0.0 calib_obs
o40919 0.0 0.0 calib_obs
o40920 0.0 0.0 calib_obs
o40921 0.0 0.0 calib_obs
o40922 0.0 0.0 calib_obs
o40923 0.25 0.05 calib_obs
o40924 0.0 0.0 calib_obs
o40925 0.0 0.0 calib_obs
o40926 0.0 0.0 calib_obs
o40927 0.0 0.0 calib_obs
o40928 0.0 0.0 calib_obs
o40929 0.0 0.0 calib_obs
o40930 0.0 0.0 calib_obs
o40931 0.0 0.0 calib_obs
o40932 0.0 0.0 calib_obs
o40933 0.0 0.0 calib_obs
o40934 0.0 0.0 calib_obs
o40935 0.0 0.0 calib_obs
o40936 0.0 0.0 calib_obs
o40937 0.0 0.0 calib_obs
o40938 0.0 0.0 calib_obs
o40939 0.0 0.0 calib_obs
o40940 0.0 0.0 calib_obs
o40941 0.0 0.0 calib_obs
o40942 0.0 0.0 calib_obs
o40943 0.0 0.0 calib_obs
o40944 0.0 0.0 calib_obs
o40945 0.0 0.0 calib_obs
o40946 0.0 0.0 calib_obs
o40947 0.0 0.0 calib_obs
o40948 0.0 0.0 calib_obs
o40949 0.0 0.0 calib_obs
o40950 0.0 0.0 calib_obs
o40951 0.0 0.0 calib_obs
o40952 0.0 0.0 calib_obs
o40953 0.0 0.0 calib_obs
o40954 0.0 0.0 calib_obs
o40955 0.0 0.0 calib_obs
o40956 0.0 0.0 calib_obs
o40957 0.0 0.0 calib_obs
o40958 0.0 0.0 calib_obs
o40959 0.0 0.0 calib_obs
o40960 0.0 0.0 calib_obs
o40961 0.0 0.0 calib_obs
o40962 0.0 0.0 calib_obs
o40963 0.0 0.0 calib_obs
o40964 0.0 0.0 calib_obs
o40965 0.0 0.0 calib_obs
o40966 0.0 0.0 calib_obs
o40967 0.0 0.0 calib_obs
o40968 0.0 0.0 calib_obs
o40969 0.0 0.0 calib_obs
o40970 0.0 0.0 calib_obs
o40971 0.0 0.0 calib_obs
o40972 0.0 0.0 calib_obs
o40973 0.0 0.0 calib_obs
o40974 0.0 0.0 calib_obs