pcf
* control data
restart estimation
146 3653 2 0 3
1 1 double point 1 0 0
10.0 5.0 0.5 0.005 20
5.0 5.0 0.005 0
0.01
50 0.01 8 8 0.01 8
1 1 1
* parameter groups
paramGroup1 relative 0.01 0.001 switch 2.0 parabolic
paramGroup2 absolute 0.05 0.001 switch 2.0 parabolic
* parameter data
ttpi none relative 1.0 0.0 2.0 paramGroup1 1.0000 0.0000 1
lp none relative 0.9 0.8 1.0 paramGroup1 1.0000 0.0000 1
cevpam fixed relative 0.5 0.5 0.5 paramGroup1 1.0000 0.0000 1
cevpph fixed relative 45 45 45 paramGroup1 1.0000 0.0000 1
rrcs3 fixed relative 0.0002 0.0002 0.0002 paramGroup1 1.0000 0.0000 1
damp none relative 0.255 0.01 0.95 paramGroup1 1.0000 0.0000 1
rivvel none relative 0.75 0.3 1 paramGroup1 1.0000 0.0000 1
tcalt fixed relative 0.6 0.6 0.6 paramGroup1 1.0000 0.0000 1
qmean fixed relative 25 25 25 paramGroup1 1.0000 0.0000 1
epotdist fixed relative 3 3 3 paramGroup1 1.0000 0.0000 1
gldepi none relative 3.0 1.0 10.0 paramGroup1 1.0000 0.0000 1
gratp none relative 2.25 2 2.5 paramGroup1 1.0000 0.0000 1
gratk none relative 1.0 0.05 2.0 paramGroup1 1.0000 0.0000 1
sdnsnew fixed relative 0.145 0.1 0.19 paramGroup1 1.0000 0.0000 1
snowdensdt fixed relative 0.0014 0.0014 0.0014 paramGroup1 1.0000 0.0000 1
ttmp_10 fixed relative 1.0 0.0 2.0 paramGroup1 1.0000 0.0000 1
ttmp_11 none relative 1.0 0.0 2.0 paramGroup1 1.0000 0.0000 1
ttmp_12 fixed relative 1.0 0.0 2.0 paramGroup1 1.0000 0.0000 1
ttmp_13 none relative 1.0 0.0 2.0 paramGroup1 1.0000 0.0000 1
ttmp_14 none relative 1.0 -1.0 2.0 paramGroup2 1.0000 0.0000 1
ttmp_15 none relative 1.0 0.0 2.0 paramGroup1 1.0000 0.0000 1
ttmp_16 none relative 1.0 0.0 2.0 paramGroup1 1.0000 0.0000 1
ttmp_17 none relative 1.0 -2.0 2.0 paramGroup2 1.0000 0.0000 1
cmlt_10 fixed relative 2.6 0.2 5.0 paramGroup1 1.0000 0.0000 1
cmlt_11 none relative 2.6 0.2 8.0 paramGroup1 1.0000 0.0000 1
cmlt_12 fixed relative 2.6 0.2 5.0 paramGroup1 1.0000 0.0000 1
cmlt_13 none relative 2.6 0.2 5.0 paramGroup1 1.0000 0.0000 1
cmlt_14 none relative 2.6 0.2 5.0 paramGroup1 1.0000 0.0000 1
cmlt_15 none relative 2.6 0.2 5.0 paramGroup1 1.0000 0.0000 1
cmlt_16 none relative 2.6 0.2 5.0 paramGroup1 1.0000 0.0000 1
cmlt_17 none relative 2.6 0.2 8.0 paramGroup1 1.0000 0.0000 1
cevp_10 fixed relative 0.15 0.1 0.2 paramGroup1 1.0000 0.0000 1
cevp_11 none relative 0.15 0.1 0.2 paramGroup1 1.0000 0.0000 1
cevp_12 fixed relative 0.15 0.1 0.2 paramGroup1 1.0000 0.0000 1
cevp_13 none relative 0.15 0.1 0.2 paramGroup1 1.0000 0.0000 1
cevp_14 none relative 0.15 0.1 0.2 paramGroup1 1.0000 0.0000 1
cevp_15 none relative 0.15 0.1 0.2 paramGroup1 1.0000 0.0000 1
cevp_16 none relative 0.15 0.1 0.2 paramGroup1 1.0000 0.0000 1
cevp_17 none relative 0.15 0.1 0.2 paramGroup1 1.0000 0.0000 1
srrcs_10 fixed relative 0.15 0.1 0.2 paramGroup1 1.0000 0.0000 1
srrcs_11 none relative 0.15 0.1 0.2 paramGroup1 1.0000 0.0000 1
srrcs_12 fixed relative 0.15 0.1 0.2 paramGroup1 1.0000 0.0000 1
srrcs_13 none relative 0.15 0.1 0.2 paramGroup1 1.0000 0.0000 1
srrcs_14 none relative 0.15 0.1 0.2 paramGroup1 1.0000 0.0000 1
srrcs_15 none relative 0.15 0.1 0.2 paramGroup1 1.0000 0.0000 1
srrcs_16 none relative 0.15 0.1 0.2 paramGroup1 1.0000 0.0000 1
srrcs_17 none relative 0.15 0.1 0.2 paramGroup1 1.0000 0.0000 1
frost_10 fixed relative 2.0 2.0 2.0 paramGroup1 1.0000 0.0000 1
frost_11 fixed relative 2.0 2.0 2.0 paramGroup1 1.0000 0.0000 1
frost_12 fixed relative 2.0 2.0 2.0 paramGroup1 1.0000 0.0000 1
frost_13 fixed relative 2.0 2.0 2.0 paramGroup1 1.0000 0.0000 1
frost_14 fixed relative 2.0 2.0 2.0 paramGroup1 1.0000 0.0000 1
frost_15 fixed relative 2.0 2.0 2.0 paramGroup1 1.0000 0.0000 1
frost_16 fixed relative 2.0 2.0 2.0 paramGroup1 1.0000 0.0000 1
frost_17 fixed relative 2.0 2.0 2.0 paramGroup1 1.0000 0.0000 1
rrcs1_100 fixed relative 0.375 0.05 0.7 paramGroup1 1.0000 0.0000 1
rrcs1_101 none relative 0.375 0.05 0.7 paramGroup1 1.0000 0.0000 1
rrcs1_102 none relative 0.375 0.05 0.7 paramGroup1 1.0000 0.0000 1
rrcs1_103 none relative 0.375 0.05 0.7 paramGroup1 1.0000 0.0000 1
rrcs1_104 none relative 0.375 0.05 0.7 paramGroup1 1.0000 0.0000 1
rrcs1_105 none relative 0.375 0.05 1.0 paramGroup1 1.0000 0.0000 1
rrcs1_106 none relative 0.375 0.05 0.7 paramGroup1 1.0000 0.0000 1
rrcs2_100 fixed relative 0.0255 0.001 0.05 paramGroup1 1.0000 0.0000 1
rrcs2_101 none relative 0.0255 0.001 0.05 paramGroup1 1.0000 0.0000 1
rrcs2_102 none relative 0.0255 0.001 0.05 paramGroup1 1.0000 0.0000 1
rrcs2_103 none relative 0.0255 0.001 0.05 paramGroup1 1.0000 0.0000 1
rrcs2_104 none relative 0.0255 0.001 0.05 paramGroup1 1.0000 0.0000 1
rrcs2_105 none relative 0.0255 0.001 0.05 paramGroup1 1.0000 0.0000 1
rrcs2_106 none relative 0.0255 0.001 0.05 paramGroup1 1.0000 0.0000 1
trrcs_100 fixed relative 0.2 0.1 0.3 paramGroup1 1.0000 0.0000 1
trrcs_101 fixed relative 0.2 0.1 0.3 paramGroup1 1.0000 0.0000 1
trrcs_102 fixed relative 0.2 0.1 0.3 paramGroup1 1.0000 0.0000 1
trrcs_103 fixed relative 0.2 0.1 0.3 paramGroup1 1.0000 0.0000 1
trrcs_104 fixed relative 0.2 0.1 0.3 paramGroup1 1.0000 0.0000 1
trrcs_105 fixed relative 0.2 0.1 0.3 paramGroup1 1.0000 0.0000 1
trrcs_106 fixed relative 0.2 0.1 0.3 paramGroup1 1.0000 0.0000 1
mperc1_100 fixed relative 65 30 100 paramGroup1 1.0000 0.0000 1
mperc1_101 fixed relative 65 30 100 paramGroup1 1.0000 0.0000 1
mperc1_102 fixed relative 65 30 100 paramGroup1 1.0000 0.0000 1
mperc1_103 fixed relative 65 30 100 paramGroup1 1.0000 0.0000 1
mperc1_104 fixed relative 65 30 100 paramGroup1 1.0000 0.0000 1
mperc1_105 fixed relative 65 30 100 paramGroup1 1.0000 0.0000 1
mperc1_106 fixed relative 65 30 100 paramGroup1 1.0000 0.0000 1
mperc2_100 fixed relative 65 30 100 paramGroup1 1.0000 0.0000 1
mperc2_101 fixed relative 65 30 100 paramGroup1 1.0000 0.0000 1
mperc2_102 fixed relative 65 30 100 paramGroup1 1.0000 0.0000 1
mperc2_103 fixed relative 65 30 100 paramGroup1 1.0000 0.0000 1
mperc2_104 fixed relative 65 30 100 paramGroup1 1.0000 0.0000 1
mperc2_105 fixed relative 65 30 100 paramGroup1 1.0000 0.0000 1
mperc2_106 fixed relative 65 30 100 paramGroup1 1.0000 0.0000 1
sfrost_100 fixed relative 1.0 1.0 1.0 paramGroup1 1.0000 0.0000 1
sfrost_101 fixed relative 1.0 1.0 1.0 paramGroup1 1.0000 0.0000 1
sfrost_102 fixed relative 1.0 1.0 1.0 paramGroup1 1.0000 0.0000 1
sfrost_103 fixed relative 1.0 1.0 1.0 paramGroup1 1.0000 0.0000 1
sfrost_104 fixed relative 1.0 1.0 1.0 paramGroup1 1.0000 0.0000 1
sfrost_105 fixed relative 1.0 1.0 1.0 paramGroup1 1.0000 0.0000 1
sfrost_106 fixed relative 1.0 1.0 1.0 paramGroup1 1.0000 0.0000 1
macrate_100 fixed relative 0.2 0.1 0.3 paramGroup1 1.0000 0.0000 1
macrate_101 none relative 0.2 0.1 0.3 paramGroup1 1.0000 0.0000 1
macrate_102 none relative 0.2 0.1 0.3 paramGroup1 1.0000 0.0000 1
macrate_103 none relative 0.2 0.1 0.3 paramGroup1 1.0000 0.0000 1
macrate_104 none relative 0.2 0.1 0.3 paramGroup1 1.0000 0.0000 1
macrate_105 none relative 0.2 0.1 0.3 paramGroup1 1.0000 0.0000 1
macrate_106 none relative 0.2 0.1 0.3 paramGroup1 1.0000 0.0000 1
mactrinf_100 fixed relative 30 10 50 paramGroup1 1.0000 0.0000 1
mactrinf_101 none relative 30 10 50 paramGroup1 1.0000 0.0000 1
mactrinf_102 none relative 30 10 50 paramGroup1 1.0000 0.0000 1
mactrinf_103 none relative 30 10 50 paramGroup1 1.0000 0.0000 1
mactrinf_104 none relative 30 10 50 paramGroup1 1.0000 0.0000 1
mactrinf_105 none relative 30 10 50 paramGroup1 1.0000 0.0000 1
mactrinf_106 none relative 30 10 50 paramGroup1 1.0000 0.0000 1
mactrsm_100 fixed relative 0.675 0.5 0.85 paramGroup1 1.0000 0.0000 1
mactrsm_101 fixed relative 0.675 0.5 0.85 paramGroup1 1.0000 0.0000 1
mactrsm_102 fixed relative 0.675 0.5 0.85 paramGroup1 1.0000 0.0000 1
mactrsm_103 fixed relative 0.675 0.5 0.85 paramGroup1 1.0000 0.0000 1
mactrsm_104 fixed relative 0.675 0.5 0.85 paramGroup1 1.0000 0.0000 1
mactrsm_105 fixed relative 0.675 0.5 0.85 paramGroup1 1.0000 0.0000 1
mactrsm_106 fixed relative 0.675 0.5 0.85 paramGroup1 1.0000 0.0000 1
srrate_100 fixed relative 0.15 0.1 0.2 paramGroup1 1.0000 0.0000 1
srrate_101 none relative 0.15 0.1 0.2 paramGroup1 1.0000 0.0000 1
srrate_102 none relative 0.15 0.1 0.2 paramGroup1 1.0000 0.0000 1
srrate_103 none relative 0.15 0.1 0.2 paramGroup1 1.0000 0.0000 1
srrate_104 none relative 0.15 0.1 0.2 paramGroup1 1.0000 0.0000 1
srrate_105 none relative 0.15 0.1 0.2 paramGroup1 1.0000 0.0000 1
srrate_106 none relative 0.15 0.1 0.2 paramGroup1 1.0000 0.0000 1
wcwp_100 fixed relative 0.07 0.04 0.1 paramGroup1 1.0000 0.0000 1
wcwp_101 none relative 0.07 0.04 0.1 paramGroup1 1.0000 0.0000 1
wcwp_102 none relative 0.07 0.04 0.1 paramGroup1 1.0000 0.0000 1
wcwp_103 none relative 0.07 0.04 0.1 paramGroup1 1.0000 0.0000 1
wcwp_104 none relative 0.07 0.04 0.1 paramGroup1 1.0000 0.0000 1
wcwp_105 none relative 0.07 0.04 0.1 paramGroup1 1.0000 0.0000 1
wcwp_106 none relative 0.07 0.04 0.1 paramGroup1 1.0000 0.0000 1
wcfc_100 fixed relative 0.25 0.1 0.4 paramGroup1 1.0000 0.0000 1
wcfc_101 none relative 0.25 0.1 0.4 paramGroup1 1.0000 0.0000 1
wcfc_102 none relative 0.25 0.1 0.5 paramGroup1 1.0000 0.0000 1
wcfc_103 none relative 0.25 0.1 0.4 paramGroup1 1.0000 0.0000 1
wcfc_104 none relative 0.25 0.1 0.4 paramGroup1 1.0000 0.0000 1
wcfc_105 none relative 0.25 0.1 0.4 paramGroup1 1.0000 0.0000 1
wcfc_106 none relative 0.25 0.1 0.4 paramGroup1 1.0000 0.0000 1
wcep_100 fixed relative 0.055 0.01 0.1 paramGroup1 1.0000 0.0000 1
wcep_101 none relative 0.055 0.01 0.1 paramGroup1 1.0000 0.0000 1
wcep_102 none relative 0.055 0.01 0.1 paramGroup1 1.0000 0.0000 1
wcep_103 none relative 0.055 0.01 0.1 paramGroup1 1.0000 0.0000 1
wcep_104 none relative 0.055 0.01 0.35 paramGroup1 1.0000 0.0000 1
wcep_105 none relative 0.055 0.01 0.35 paramGroup1 1.0000 0.0000 1
wcep_106 none relative 0.055 0.01 0.1 paramGroup1 1.0000 0.0000 1
* observation groups
warmup_obs
calib_obs
valid_obs
* observation data
o10960 0.0 0.0 warmup_obs
o10961 0.0 0.0 warmup_obs
o10962 0.0 0.0 warmup_obs
o10963 0.0 0.0 warmup_obs
o10964 0.0 0.0 warmup_obs
o10965 0.0 0.0 warmup_obs
o10966 0.0 0.0 warmup_obs
o10967 0.0 0.0 warmup_obs
o10968 0.0 0.0 warmup_obs
o10969 0.0 0.0 warmup_obs
o10970 0.0 0.0 warmup_obs
o10971 0.0 0.0 warmup_obs
o10972 0.0 0.0 warmup_obs
o10973 0.0 0.0 warmup_obs
o10974 0.0 0.0 warmup_obs
o10975 0.0 0.0 warmup_obs
o10976 0.0 0.0 warmup_obs
o10977 0.0 0.0 warmup_obs
o10978 0.0 0.0 warmup_obs
o10979 0.0 0.0 warmup_obs
o10980 0.0 0.0 warmup_obs
o10981 0.0 0.0 warmup_obs
o10982 0.0 0.0 warmup_obs
o10983 0.0 0.0 warmup_obs
o10984 0.0 0.0 warmup_obs
o10985 0.0 0.0 warmup_obs
o10986 0.0 0.0 warmup_obs
o10987 0.0 0.0 warmup_obs
o10988 0.0 0.0 warmup_obs
o10989 0.0 0.0 warmup_obs
o10990 0.0 0.0 warmup_obs
o10991 0.0 0.0 warmup_obs
o10992 0.0 0.0 warmup_obs
o10993 0.0 0.0 warmup_obs
o10994 0.0 0.0 warmup_obs
o10995 0.0 0.0 warmup_obs
o10996 0.0 0.0 warmup_obs
o10997 0.0 0.0 warmup_obs
o10998 0.0 0.0 warmup_obs
o10999 0.0 0.0 warmup_obs
o11000 0.0 0.0 warmup_obs
o11001 0.0 0.0 warmup_obs
o11002 0.0 0.0 warmup_obs
o11003 0.0 0.0 warmup_obs
o11004 0.0 0.0 warmup_obs
o11005 0.0 0.0 warmup_obs
o11006 0.0 0.0 warmup_obs
o11007 0.0 0.0 warmup_obs
o11008 0.0 0.0 warmup_obs
o11009 0.0 0.0 warmup_obs
o11010 0.0 0.0 warmup_obs
o11011 0.0 0.0 warmup_obs
o11012 0.0 0.0 warmup_obs
o11013 0.0 0.0 warmup_obs
o11014 0.0 0.0 warmup_obs
o11015 0.0 0.0 warmup_obs
o11016 0.0 0.0 warmup_obs
o11017 0.0 0.0 warmup_obs
o11018 0.0 0.0 warmup_obs
o11019 0.0 0.0 warmup_obs
o11020 0.0 0.0 warmup_obs
o11021 0.0 0.0 warmup_obs
o11022 0.0 0.0 warmup_obs
o11023 0.0 0.0 warmup_obs
o11024 0.0 0.0 warmup_obs
o11025 0.0 0.0 warmup_obs
o11026 0.0 0.0 warmup_obs
o11027 0.0 0.0 warmup_obs
o11028 0.0 0.0 warmup_obs
o11029 0.0 0.0 warmup_obs
o11030 0.0 0.0 warmup_obs
o11031 0.0 0.0 warmup_obs
o11032 0.0 0.0 warmup_obs
o11033 0.0 0.0 warmup_obs
o11034 0.0 0.0 warmup_obs
o11035 0.0 0.0 warmup_obs
o11036 0.0 0.0 warmup_obs
o11037 0.0 0.0 warmup_obs
o11038 0.0 0.0 warmup_obs
o11039 0.0 0.0 warmup_obs
o11040 0.0 0.0 warmup_obs
o11041 0.0 0.0 warmup_obs
o11042 0.0 0.0 warmup_obs
o11043 0.0 0.0 warmup_obs
o11044 0.0 0.0 warmup_obs
o11045 0.0 0.0 warmup_obs
o11046 0.0 0.0 warmup_obs
o11047 0.0 0.0 warmup_obs
o11048 0.0 0.0 warmup_obs
o11049 0.0 0.0 warmup_obs
o11050 0.0 0.0 warmup_obs
o11051 0.0 0.0 warmup_obs
o11052 0.0 0.0 warmup_obs
o11053 0.0 0.0 warmup_obs
o11054 0.0 0.0 warmup_obs
o11055 0.0 0.0 warmup_obs
o11056 0.0 0.0 warmup_obs
o11057 0.0 0.0 warmup_obs
o11058 0.0 0.0 warmup_obs
o11059 0.0 0.0 warmup_obs
o11060 0.0 0.0 warmup_obs
o11061 0.0 0.0 warmup_obs
o11062 0.0 0.0 warmup_obs
o11063 0.0 0.0 warmup_obs
o11064 0.0 0.0 warmup_obs
o11065 0.0 0.0 warmup_obs
o11066 0.0 0.0 warmup_obs
o11067 0.0 0.0 warmup_obs
o11068 0.0 0.0 warmup_obs
o11069 0.0 0.0 warmup_obs
o11070 0.0 0.0 warmup_obs
o11071 0.0 0.0 warmup_obs
o11072 0.0 0.0 warmup_obs
o11073 0.0 0.0 warmup_obs
o11074 0.0 0.0 warmup_obs
o11075 0.0 0.0 warmup_obs
o11076 0.0 0.0 warmup_obs
o11077 0.0 0.0 warmup_obs
o11078 0.0 0.0 warmup_obs
o11079 0.0 0.0 warmup_obs
o11080 0.0 0.0 warmup_obs
o11081 0.0 0.0 warmup_obs
o11082 0.0 0.0 warmup_obs
o11083 0.0 0.0 warmup_obs
o11084 0.0 0.0 warmup_obs
o11085 0.0 0.0 warmup_obs
o11086 0.0 0.0 warmup_obs
o11087 0.0 0.0 warmup_obs
o11088 0.0 0.0 warmup_obs
o11089 0.0 0.0 warmup_obs
o11090 0.0 0.0 warmup_obs
o11091 0.0 0.0 warmup_obs
o11092 0.0 0.0 warmup_obs
o11093 0.0 0.0 warmup_obs
o11094 0.0 0.0 warmup_obs
o11095 0.0 0.0 warmup_obs
o11096 0.0 0.0 warmup_obs
o11097 0.0 0.0 warmup_obs
o11098 0.0 0.0 warmup_obs
o11099 0.0 0.0 warmup_obs
o11100 0.0 0.0 warmup_obs
o11101 0.0 0.0 warmup_obs
o11102 0.0 0.0 warmup_obs
o11103 0.0 0.0 warmup_obs
o11104 0.0 0.0 warmup_obs
o11105 0.0 0.0 warmup_obs
o11106 0.0 0.0 warmup_obs
o11107 0.0 0.0 warmup_obs
o11108 0.0 0.0 warmup_obs
o11109 0.0 0.0 warmup_obs
o11110 0.0 0.0 warmup_obs
o11111 0.0 0.0 warmup_obs
o11112 0.0 0.0 warmup_obs
o11113 0.0 0.0 warmup_obs
o11114 0.0 0.0 warmup_obs
o11115 0.0 0.0 warmup_obs
o11116 0.0 0.0 warmup_obs
o11117 0.0 0.0 warmup_obs
o11118 0.0 0.0 warmup_obs
o11119 0.0 0.0 warmup_obs
o11120 0.0 0.0 warmup_obs
o11121 0.0 0.0 warmup_obs
o11122 0.0 0.0 warmup_obs
o11123 0.0 0.0 warmup_obs
o11124 0.0 0.0 warmup_obs
o11125 0.0 0.0 warmup_obs
o11126 0.0 0.0 warmup_obs
o11127 0.0 0.0 warmup_obs
o11128 0.0 0.0 warmup_obs
o11129 0.0 0.0 warmup_obs
o11130 0.0 0.0 warmup_obs
o11131 0.0 0.0 warmup_obs
o11132 0.0 0.0 warmup_obs
o11133 0.0 0.0 warmup_obs
o11134 0.0 0.0 warmup_obs
o11135 0.0 0.0 warmup_obs
o11136 0.0 0.0 warmup_obs
o11137 0.0 0.0 warmup_obs
o11138 0.0 0.0 warmup_obs
o11139 0.0 0.0 warmup_obs
o11140 0.0 0.0 warmup_obs
o11141 0.0 0.0 warmup_obs
o11142 0.0 0.0 warmup_obs
o11143 0.0 0.0 warmup_obs
o11144 0.0 0.0 warmup_obs
o11145 0.0 0.0 warmup_obs
o11146 0.0 0.0 warmup_obs
o11147 0.0 0.0 warmup_obs
o11148 0.0 0.0 warmup_obs
o11149 0.0 0.0 warmup_obs
o11150 0.0 0.0 warmup_obs
o11151 0.0 0.0 warmup_obs
o11152 0.0 0.0 warmup_obs
o11153 0.0 0.0 warmup_obs
o11154 0.0 0.0 warmup_obs
o11155 0.0 0.0 warmup_obs
o11156 0.0 0.0 warmup_obs
o11157 0.0 0.0 warmup_obs
o11158 0.0 0.0 warmup_obs
o11159 0.0 0.0 warmup_obs
o11160 0.0 0.0 warmup_obs
o11161 0.0 0.0 warmup_obs
o11162 0.0 0.0 warmup_obs
o11163 0.0 0.0 warmup_obs
o11164 0.0 0.0 warmup_obs
o11165 0.0 0.0 warmup_obs
o11166 0.0 0.0 warmup_obs
o11167 0.0 0.0 warmup_obs
o11168 0.0 0.0 warmup_obs
o11169 0.0 0.0 warmup_obs
o11170 0.0 0.0 warmup_obs
o11171 0.0 0.0 warmup_obs
o11172 0.0 0.0 warmup_obs
o11173 0.0 0.0 warmup_obs
o11174 0.0 0.0 warmup_obs
o11175 0.0 0.0 warmup_obs
o11176 0.0 0.0 warmup_obs
o11177 0.0 0.0 warmup_obs
o11178 0.0 0.0 warmup_obs
o11179 0.0 0.0 warmup_obs
o11180 0.0 0.0 warmup_obs
o11181 0.0 0.0 warmup_obs
o11182 0.0 0.0 warmup_obs
o11183 0.0 0.0 warmup_obs
o11184 0.0 0.0 warmup_obs
o11185 0.0 0.0 warmup_obs
o11186 0.0 0.0 warmup_obs
o11187 0.0 0.0 warmup_obs
o11188 0.0 0.0 warmup_obs
o11189 0.0 0.0 warmup_obs
o11190 0.0 0.0 warmup_obs
o11191 0.0 0.0 warmup_obs
o11192 0.0 0.0 warmup_obs
o11193 0.0 0.0 warmup_obs
o11194 0.0 0.0 warmup_obs
o11195 0.0 0.0 warmup_obs
o11196 0.0 0.0 warmup_obs
o11197 0.0 0.0 warmup_obs
o11198 0.0 0.0 warmup_obs
o11199 0.0 0.0 warmup_obs
o11200 0.0 0.0 warmup_obs
o11201 0.0 0.0 warmup_obs
o11202 0.0 0.0 warmup_obs
o11203 0.0 0.0 warmup_obs
o11204 0.0 0.0 warmup_obs
o11205 0.0 0.0 warmup_obs
o11206 0.0 0.0 warmup_obs
o11207 0.0 0.0 warmup_obs
o11208 0.0 0.0 warmup_obs
o11209 0.0 0.0 warmup_obs
o11210 0.0 0.0 warmup_obs
o11211 0.0 0.0 warmup_obs
o11212 0.0 0.0 warmup_obs
o11213 0.0 0.0 warmup_obs
o11214 0.0 0.0 warmup_obs
o11215 0.0 0.0 warmup_obs
o11216 0.0 0.0 warmup_obs
o11217 0.0 0.0 warmup_obs
o11218 0.0 0.0 warmup_obs
o11219 0.0 0.0 warmup_obs
o11220 0.0 0.0 warmup_obs
o11221 0.0 0.0 warmup_obs
o11222 0.0 0.0 warmup_obs
o11223 0.0 0.0 warmup_obs
o11224 0.0 0.0 warmup_obs
o11225 0.0 0.0 warmup_obs
o11226 0.0 0.0 warmup_obs
o11227 0.0 0.0 warmup_obs
o11228 0.0 0.0 warmup_obs
o11229 0.0 0.0 warmup_obs
o11230 0.0 0.0 warmup_obs
o11231 0.0 0.0 warmup_obs
o11232 0.0 0.0 warmup_obs
o11233 0.0 0.0 warmup_obs
o11234 0.0 0.0 warmup_obs
o11235 0.0 0.0 warmup_obs
o11236 0.0 0.0 warmup_obs
o11237 0.0 0.0 warmup_obs
o11238 0.0 0.0 warmup_obs
o11239 0.0 0.0 warmup_obs
o11240 0.0 0.0 warmup_obs
o11241 0.0 0.0 warmup_obs
o11242 0.0 0.0 warmup_obs
o11243 0.0 0.0 warmup_obs
o11244 0.0 0.0 warmup_obs
o11245 0.0 0.0 warmup_obs
o11246 0.0 0.0 warmup_obs
o11247 0.0 0.0 warmup_obs
o11248 0.0 0.0 warmup_obs
o11249 0.0 0.0 warmup_obs
o11250 0.0 0.0 warmup_obs
o11251 0.0 0.0 warmup_obs
o11252 0.0 0.0 warmup_obs
o11253 0.0 0.0 warmup_obs
o11254 0.0 0.0 warmup_obs
o11255 0.0 0.0 warmup_obs
o11256 0.0 0.0 warmup_obs
o11257 0.0 0.0 warmup_obs
o11258 0.0 0.0 warmup_obs
o11259 0.0 0.0 warmup_obs
o11260 0.0 0.0 warmup_obs
o11261 0.0 0.0 warmup_obs
o11262 0.0 0.0 warmup_obs
o11263 0.0 0.0 warmup_obs
o11264 0.0 0.0 warmup_obs
o11265 0.0 0.0 warmup_obs
o11266 0.0 0.0 warmup_obs
o11267 0.0 0.0 warmup_obs
o11268 0.0 0.0 warmup_obs
o11269 0.0 0.0 warmup_obs
o11270 0.0 0.0 warmup_obs
o11271 0.0 0.0 warmup_obs
o11272 0.0 0.0 warmup_obs
o11273 0.0 0.0 warmup_obs
o11274 0.0 0.0 warmup_obs
o11275 0.0 0.0 warmup_obs
o11276 0.0 0.0 warmup_obs
o11277 0.0 0.0 warmup_obs
o11278 0.0 0.0 warmup_obs
o11279 0.0 0.0 warmup_obs
o11280 0.0 0.0 warmup_obs
o11281 0.0 0.0 warmup_obs
o11282 0.0 0.0 warmup_obs
o11283 0.0 0.0 warmup_obs
o11284 0.0 0.0 warmup_obs
o11285 0.0 0.0 warmup_obs
o11286 0.0 0.0 warmup_obs
o11287 0.0 0.0 warmup_obs
o11288 0.0 0.0 warmup_obs
o11289 0.0 0.0 warmup_obs
o11290 0.0 0.0 warmup_obs
o11291 0.0 0.0 warmup_obs
o11292 0.0 0.0 warmup_obs
o11293 0.0 0.0 warmup_obs
o11294 0.0 0.0 warmup_obs
o11295 0.0 0.0 warmup_obs
o11296 0.0 0.0 warmup_obs
o11297 0.0 0.0 warmup_obs
o11298 0.0 0.0 warmup_obs
o11299 0.0 0.0 warmup_obs
o11300 0.0 0.0 warmup_obs
o11301 0.0 0.0 warmup_obs
o11302 0.0 0.0 warmup_obs
o11303 0.0 0.0 warmup_obs
o11304 0.0 0.0 warmup_obs
o11305 0.0 0.0 warmup_obs
o11306 0.0 0.0 warmup_obs
o11307 0.0 0.0 warmup_obs
o11308 0.0 0.0 warmup_obs
o11309 0.0 0.0 warmup_obs
o11310 0.0 0.0 warmup_obs
o11311 0.0 0.0 warmup_obs
o11312 0.0 0.0 warmup_obs
o11313 0.0 0.0 warmup_obs
o11314 0.0 0.0 warmup_obs
o11315 0.0 0.0 warmup_obs
o11316 0.0 0.0 warmup_obs
o11317 0.0 0.0 warmup_obs
o11318 0.0 0.0 warmup_obs
o11319 0.0 0.0 warmup_obs
o11320 0.0 0.0 warmup_obs
o11321 0.0 0.0 warmup_obs
o11322 0.0 0.0 warmup_obs
o11323 0.0 0.0 warmup_obs
o11324 0.0 0.0 warmup_obs
o11325 0.0 0.0 warmup_obs
o11326 12.5 0.925 calib_obs
o11327 11.75 0.925 calib_obs
o11328 9.7 0.925 calib_obs
o11329 0.0 0.0 calib_obs
o11330 7.38 0.925 calib_obs
o11331 6.75 0.925 calib_obs
o11332 6.13 0.925 calib_obs
o11333 5.7 0.925 calib_obs
o11334 5.35 0.925 calib_obs
o11335 5.18 0.925 calib_obs
o11336 5.0 0.925 calib_obs
o11337 0.0 0.0 calib_obs
o11338 4.63 0.925 calib_obs
o11339 4.63 0.925 calib_obs
o11340 4.5 0.925 calib_obs
o11341 4.38 0.925 calib_obs
o11342 4.25 0.925 calib_obs
o11343 4.13 0.925 calib_obs
o11344 4.0 0.925 calib_obs
o11345 4.0 0.925 calib_obs
o11346 3.93 0.925 calib_obs
o11347 3.85 0.925 calib_obs
o11348 3.8 0.925 calib_obs
o11349 3.8 0.925 calib_obs
o11350 3.75 0.925 calib_obs
o11351 3.5 0.925 calib_obs
o11352 3.5 0.925 calib_obs
o11353 3.38 0.925 calib_obs
o11354 3.38 0.925 calib_obs
o11355 3.38 0.925 calib_obs
o11356 3.38 0.925 calib_obs
o11357 3.5 0.925 calib_obs
o11358 3.5 0.925 calib_obs
o11359 3.38 0.925 calib_obs
o11360 3.38 0.925 calib_obs
o11361 3.38 0.925 calib_obs
o11362 3.25 0.925 calib_obs
o11363 3.13 0.925 calib_obs
o11364 2.91 0.925 calib_obs
o11365 2.82 0.925 calib_obs
o11366 2.65 0.925 calib_obs
o11367 2.58 0.925 calib_obs
o11368 2.5 0.925 calib_obs
o11369 2.41 0.925 calib_obs
o11370 2.41 0.925 calib_obs
o11371 2.41 0.925 calib_obs
o11372 2.41 0.925 calib_obs
o11373 2.41 0.925 calib_obs
o11374 2.41 0.925 calib_obs
o11375 2.5 0.925 calib_obs
o11376 2.74 0.925 calib_obs
o11377 3.0 0.925 calib_obs
o11378 3.0 0.925 calib_obs
o11379 3.13 0.925 calib_obs
o11380 3.13 0.925 calib_obs
o11381 3.0 0.925 calib_obs
o11382 3.0 0.925 calib_obs
o11383 2.91 0.925 calib_obs
o11384 2.82 0.925 calib_obs
o11385 3.0 0.925 calib_obs
o11386 4.25 0.925 calib_obs
o11387 6.38 0.925 calib_obs
o11388 6.75 0.925 calib_obs
o11389 6.38 0.925 calib_obs
o11390 0.0 0.0 calib_obs
o11391 5.18 0.925 calib_obs
o11392 4.63 0.925 calib_obs
o11393 4.25 0.925 calib_obs
o11394 4.0 0.925 calib_obs
o11395 3.85 0.925 calib_obs
o11396 3.85 0.925 calib_obs
o11397 4.13 0.925 calib_obs
o11398 4.5 0.925 calib_obs
o11399 4.88 0.925 calib_obs
o11400 6.88 0.925 calib_obs
o11401 7.88 0.925 calib_obs
o11402 0.0 0.0 calib_obs
o11403 9.7 0.925 calib_obs
o11404 10.25 0.925 calib_obs
o11405 11.0 0.925 calib_obs
o11406 13.7 0.925 calib_obs
o11407 16.0 0.925 calib_obs
o11408 16.25 0.925 calib_obs
o11409 15.5 0.925 calib_obs
o11410 14.52 0.925 calib_obs
o11411 14.52 0.925 calib_obs
o11412 15.0 0.925 calib_obs
o11413 14.85 0.925 calib_obs
o11414 14.0 0.925 calib_obs
o11415 13.0 0.925 calib_obs
o11416 11.5 0.925 calib_obs
o11417 11.5 0.925 calib_obs
o11418 13.17 0.925 calib_obs
o11419 14.17 0.925 calib_obs
o11420 15.25 0.925 calib_obs
o11421 16.25 0.925 calib_obs
o11422 16.75 0.925 calib_obs
o11423 17.5 0.925 calib_obs
o11424 17.75 0.925 calib_obs
o11425 17.5 0.925 calib_obs
o11426 17.75 0.925 calib_obs
o11427 18.17 0.925 calib_obs
o11428 17.75 0.925 calib_obs
o11429 16.75 0.925 calib_obs
o11430 15.0 0.925 calib_obs
o11431 13.85 0.925 calib_obs
o11432 12.5 0.925 calib_obs
o11433 11.0 0.925 calib_obs
o11434 9.7 0.925 calib_obs
o11435 9.0 0.925 calib_obs
o11436 8.52 0.925 calib_obs
o11437 9.06 0.925 calib_obs
o11438 9.7 0.925 calib_obs
o11439 9.81 0.925 calib_obs
o11440 9.76 0.925 calib_obs
o11441 0.0 0.0 calib_obs
o11442 12.24 0.925 calib_obs
o11443 12.75 0.925 calib_obs
o11444 12.6 0.925 calib_obs
o11445 12.89 0.925 calib_obs
o11446 13.83 0.925 calib_obs
o11447 14.05 0.925 calib_obs
o11448 13.81 0.925 calib_obs
o11449 13.14 0.925 calib_obs
o11450 12.04 0.925 calib_obs
o11451 10.82 0.925 calib_obs
o11452 9.92 0.925 calib_obs
o11453 9.22 0.925 calib_obs
o11454 8.56 0.925 calib_obs
o11455 7.95 0.925 calib_obs
o11456 7.54 0.925 calib_obs
o11457 7.19 0.925 calib_obs
o11458 6.84 0.925 calib_obs
o11459 6.54 0.925 calib_obs
o11460 6.29 0.925 calib_obs
o11461 6.05 0.925 calib_obs
o11462 5.79 0.925 calib_obs
o11463 5.4 0.925 calib_obs
o11464 5.15 0.925 calib_obs
o11465 5.0 0.925 calib_obs
o11466 4.9 0.925 calib_obs
o11467 4.73 0.925 calib_obs
o11468 4.52 0.925 calib_obs
o11469 4.29 0.925 calib_obs
o11470 4.1 0.925 calib_obs
o11471 3.94 0.925 calib_obs
o11472 3.81 0.925 calib_obs
o11473 3.67 0.925 calib_obs
o11474 3.49 0.925 calib_obs
o11475 3.28 0.925 calib_obs
o11476 3.22 0.925 calib_obs
o11477 3.24 0.925 calib_obs
o11478 3.4 0.925 calib_obs
o11479 3.46 0.925 calib_obs
o11480 3.42 0.925 calib_obs
o11481 3.26 0.925 calib_obs
o11482 3.12 0.925 calib_obs
o11483 2.99 0.925 calib_obs
o11484 2.9 0.925 calib_obs
o11485 2.89 0.925 calib_obs
o11486 2.87 0.925 calib_obs
o11487 2.89 0.925 calib_obs
o11488 2.91 0.925 calib_obs
o11489 3.25 0.925 calib_obs
o11490 4.47 0.925 calib_obs
o11491 5.39 0.925 calib_obs
o11492 5.26 0.925 calib_obs
o11493 4.82 0.925 calib_obs
o11494 4.42 0.925 calib_obs
o11495 4.06 0.925 calib_obs
o11496 3.83 0.925 calib_obs
o11497 3.8 0.925 calib_obs
o11498 0.0 0.0 calib_obs
o11499 3.94 0.925 calib_obs
o11500 3.95 0.925 calib_obs
o11501 3.91 0.925 calib_obs
o11502 3.81 0.925 calib_obs
o11503 3.72 0.925 calib_obs
o11504 3.65 0.925 calib_obs
o11505 3.55 0.925 calib_obs
o11506 3.45 0.925 calib_obs
o11507 3.33 0.925 calib_obs
o11508 3.14 0.925 calib_obs
o11509 2.92 0.925 calib_obs
o11510 2.75 0.925 calib_obs
o11511 2.63 0.925 calib_obs
o11512 2.55 0.925 calib_obs
o11513 2.42 0.925 calib_obs
o11514 2.35 0.925 calib_obs
o11515 2.25 0.925 calib_obs
o11516 0.0 0.0 calib_obs
o11517 1.99 2.7750000000000004 calib_obs
o11518 2.07 2.7750000000000004 calib_obs
o11519 2.34 0.925 calib_obs
o11520 2.75 0.925 calib_obs
o11521 3.26 0.925 calib_obs
o11522 3.69 0.925 calib_obs
o11523 3.77 0.925 calib_obs
o11524 3.72 0.925 calib_obs
o11525 3.54 0.925 calib_obs
o11526 3.34 0.925 calib_obs
o11527 3.23 0.925 calib_obs
o11528 3.36 0.925 calib_obs
o11529 3.53 0.925 calib_obs
o11530 3.64 0.925 calib_obs
o11531 3.66 0.925 calib_obs
o11532 3.61 0.925 calib_obs
o11533 3.54 0.925 calib_obs
o11534 3.39 0.925 calib_obs
o11535 3.19 0.925 calib_obs
o11536 2.96 0.925 calib_obs
o11537 2.78 0.925 calib_obs
o11538 2.64 0.925 calib_obs
o11539 2.59 0.925 calib_obs
o11540 2.54 0.925 calib_obs
o11541 2.58 0.925 calib_obs
o11542 3.08 0.925 calib_obs
o11543 3.86 0.925 calib_obs
o11544 4.46 0.925 calib_obs
o11545 5.52 0.925 calib_obs
o11546 6.46 0.925 calib_obs
o11547 6.69 0.925 calib_obs
o11548 6.48 0.925 calib_obs
o11549 6.08 0.925 calib_obs
o11550 7.71 0.925 calib_obs
o11551 9.77 0.925 calib_obs
o11552 9.94 0.925 calib_obs
o11553 9.54 0.925 calib_obs
o11554 8.8 0.925 calib_obs
o11555 7.99 0.925 calib_obs
o11556 7.32 0.925 calib_obs
o11557 6.73 0.925 calib_obs
o11558 6.2 0.925 calib_obs
o11559 0.0 0.0 calib_obs
o11560 5.87 0.925 calib_obs
o11561 5.58 0.925 calib_obs
o11562 5.15 0.925 calib_obs
o11563 4.75 0.925 calib_obs
o11564 4.4 0.925 calib_obs
o11565 4.1 0.925 calib_obs
o11566 3.89 0.925 calib_obs
o11567 3.75 0.925 calib_obs
o11568 3.54 0.925 calib_obs
o11569 3.41 0.925 calib_obs
o11570 3.3 0.925 calib_obs
o11571 3.19 0.925 calib_obs
o11572 3.06 0.925 calib_obs
o11573 2.93 0.925 calib_obs
o11574 2.8 0.925 calib_obs
o11575 2.69 0.925 calib_obs
o11576 2.64 0.925 calib_obs
o11577 2.63 0.925 calib_obs
o11578 3.0 0.925 calib_obs
o11579 4.16 0.925 calib_obs
o11580 5.84 0.925 calib_obs
o11581 7.63 0.925 calib_obs
o11582 8.69 0.925 calib_obs
o11583 13.37 0.925 calib_obs
o11584 16.54 0.925 calib_obs
o11585 16.63 0.925 calib_obs
o11586 16.46 0.925 calib_obs
o11587 15.7 0.925 calib_obs
o11588 14.62 0.925 calib_obs
o11589 13.61 0.925 calib_obs
o11590 12.51 0.925 calib_obs
o11591 11.5 0.925 calib_obs
o11592 10.66 0.925 calib_obs
o11593 9.81 0.925 calib_obs
o11594 9.09 0.925 calib_obs
o11595 8.42 0.925 calib_obs
o11596 7.84 0.925 calib_obs
o11597 7.41 0.925 calib_obs
o11598 7.02 0.925 calib_obs
o11599 6.7 0.925 calib_obs
o11600 6.43 0.925 calib_obs
o11601 6.32 0.925 calib_obs
o11602 8.21 0.925 calib_obs
o11603 11.62 0.925 calib_obs
o11604 14.2 0.925 calib_obs
o11605 15.18 0.925 calib_obs
o11606 15.93 0.925 calib_obs
o11607 21.36 0.925 calib_obs
o11608 27.79 0.925 calib_obs
o11609 31.46 0.925 calib_obs
o11610 0.0 0.0 calib_obs
o11611 0.0 0.0 calib_obs
o11612 0.0 0.0 calib_obs
o11613 0.0 0.0 calib_obs
o11614 30.8 0.925 calib_obs
o11615 27.8 0.925 calib_obs
o11616 26.3 0.925 calib_obs
o11617 25.7 0.925 calib_obs
o11618 23.9 0.925 calib_obs
o11619 21.5 0.925 calib_obs
o11620 0.0 0.0 calib_obs
o11621 17.75 0.925 calib_obs
o11622 16.0 0.925 calib_obs
o11623 14.7 0.925 calib_obs
o11624 13.85 0.925 calib_obs
o11625 13.17 0.925 calib_obs
o11626 12.25 0.925 calib_obs
o11627 14.7 0.925 calib_obs
o11628 18.0 0.925 calib_obs
o11629 18.0 0.925 calib_obs
o11630 17.0 0.925 calib_obs
o11631 15.75 0.925 calib_obs
o11632 14.33 0.925 calib_obs
o11633 13.33 0.925 calib_obs
o11634 12.5 0.925 calib_obs
o11635 12.0 0.925 calib_obs
o11636 11.75 0.925 calib_obs
o11637 11.5 0.925 calib_obs
o11638 11.25 0.925 calib_obs
o11639 11.0 0.925 calib_obs
o11640 12.75 0.925 calib_obs
o11641 19.25 0.925 calib_obs
o11642 29.3 0.925 calib_obs
o11643 0.0 0.0 calib_obs
o11644 32.6 0.925 calib_obs
o11645 31.4 0.925 calib_obs
o11646 28.4 0.925 calib_obs
o11647 26.3 0.925 calib_obs
o11648 25.4 0.925 calib_obs
o11649 25.1 0.925 calib_obs
o11650 24.2 0.925 calib_obs
o11651 22.4 0.925 calib_obs
o11652 20.3 0.925 calib_obs
o11653 19.0 0.925 calib_obs
o11654 24.8 0.925 calib_obs
o11655 29.6 0.925 calib_obs
o11656 32.3 0.925 calib_obs
o11657 32.6 0.925 calib_obs
o11658 0.0 0.0 calib_obs
o11659 32.0 0.925 calib_obs
o11660 30.8 0.925 calib_obs
o11661 29.0 0.925 calib_obs
o11662 28.1 0.925 calib_obs
o11663 0.0 0.0 calib_obs
o11664 0.0 0.0 calib_obs
o11665 0.0 0.0 calib_obs
o11666 31.7 0.925 calib_obs
o11667 29.3 0.925 calib_obs
o11668 31.4 0.925 calib_obs
o11669 32.3 0.925 calib_obs
o11670 30.2 0.925 calib_obs
o11671 27.8 0.925 calib_obs
o11672 26.9 0.925 calib_obs
o11673 26.9 0.925 calib_obs
o11674 25.1 0.925 calib_obs
o11675 23.3 0.925 calib_obs
o11676 21.2 0.925 calib_obs
o11677 19.5 0.925 calib_obs
o11678 18.33 0.925 calib_obs
o11679 0.0 0.0 calib_obs
o11680 18.42 0.925 calib_obs
o11681 21.49 0.925 calib_obs
o11682 21.2 0.925 calib_obs
o11683 20.3 0.925 calib_obs
o11684 18.71 0.925 calib_obs
o11685 17.91 0.925 calib_obs
o11686 17.01 0.925 calib_obs
o11687 16.59 0.925 calib_obs
o11688 17.39 0.925 calib_obs
o11689 20.93 0.925 calib_obs
o11690 23.0 0.925 calib_obs
o11691 22.4 0.925 calib_obs
o11692 22.78 0.925 calib_obs
o11693 26.63 0.925 calib_obs
o11694 0.0 0.0 calib_obs
o11695 29.9 0.925 calib_obs
o11696 0.0 0.0 calib_obs
o11697 0.0 0.0 calib_obs
o11698 0.0 0.0 calib_obs
o11699 0.0 0.0 calib_obs
o11700 32.33 0.925 calib_obs
o11701 29.58 0.925 calib_obs
o11702 0.0 0.0 calib_obs
o11703 19.86 0.925 calib_obs
o11704 18.0 0.925 calib_obs
o11705 16.02 0.925 calib_obs
o11706 13.78 0.925 calib_obs