pcf
* control data
restart estimation
146 21918 2 0 3
1 6 double point 1 0 0
10.0 5.0 0.5 0.005 20
5.0 5.0 0.005 0
0.01
50 0.01 8 8 0.01 8
1 1 1
* parameter groups
paramGroup1 relative 0.01 0.001 switch 2.0 parabolic
paramGroup2 absolute 0.05 0.001 switch 2.0 parabolic
* parameter data
ttpi none relative 1.0 0.0 2.0 paramGroup1 1.0000 0.0000 1
lp none relative 0.9 0.8 1.0 paramGroup1 1.0000 0.0000 1
cevpam fixed relative 0.5 0.5 0.5 paramGroup1 1.0000 0.0000 1
cevpph fixed relative 45 45 45 paramGroup1 1.0000 0.0000 1
rrcs3 fixed relative 0.0002 0.0002 0.0002 paramGroup1 1.0000 0.0000 1
damp none relative 0.255 0.01 0.95 paramGroup1 1.0000 0.0000 1
rivvel none relative 0.75 0.3 1 paramGroup1 1.0000 0.0000 1
tcalt fixed relative 0.6 0.6 0.6 paramGroup1 1.0000 0.0000 1
qmean fixed relative 25 25 25 paramGroup1 1.0000 0.0000 1
epotdist fixed relative 3 3 3 paramGroup1 1.0000 0.0000 1
gldepi none relative 3.0 1.0 10.0 paramGroup1 1.0000 0.0000 1
gratp none relative 2.25 2 2.5 paramGroup1 1.0000 0.0000 1
gratk none relative 1.0 0.05 2.0 paramGroup1 1.0000 0.0000 1
sdnsnew fixed relative 0.145 0.1 0.19 paramGroup1 1.0000 0.0000 1
snowdensdt fixed relative 0.0014 0.0014 0.0014 paramGroup1 1.0000 0.0000 1
ttmp_10 fixed relative 1.0 0.0 2.0 paramGroup1 1.0000 0.0000 1
ttmp_11 none relative 1.0 0.0 2.0 paramGroup1 1.0000 0.0000 1
ttmp_12 fixed relative 1.0 0.0 2.0 paramGroup1 1.0000 0.0000 1
ttmp_13 none relative 1.0 0.0 2.0 paramGroup1 1.0000 0.0000 1
ttmp_14 none relative 1.0 -1.0 2.0 paramGroup2 1.0000 0.0000 1
ttmp_15 none relative 1.0 0.0 2.0 paramGroup1 1.0000 0.0000 1
ttmp_16 none relative 1.0 0.0 2.0 paramGroup1 1.0000 0.0000 1
ttmp_17 none relative 1.0 -2.0 2.0 paramGroup2 1.0000 0.0000 1
cmlt_10 fixed relative 2.6 0.2 5.0 paramGroup1 1.0000 0.0000 1
cmlt_11 none relative 2.6 0.2 8.0 paramGroup1 1.0000 0.0000 1
cmlt_12 fixed relative 2.6 0.2 5.0 paramGroup1 1.0000 0.0000 1
cmlt_13 none relative 2.6 0.2 5.0 paramGroup1 1.0000 0.0000 1
cmlt_14 none relative 2.6 0.2 5.0 paramGroup1 1.0000 0.0000 1
cmlt_15 none relative 2.6 0.2 5.0 paramGroup1 1.0000 0.0000 1
cmlt_16 none relative 2.6 0.2 5.0 paramGroup1 1.0000 0.0000 1
cmlt_17 none relative 2.6 0.2 8.0 paramGroup1 1.0000 0.0000 1
cevp_10 fixed relative 0.15 0.1 0.2 paramGroup1 1.0000 0.0000 1
cevp_11 none relative 0.15 0.1 0.2 paramGroup1 1.0000 0.0000 1
cevp_12 fixed relative 0.15 0.1 0.2 paramGroup1 1.0000 0.0000 1
cevp_13 none relative 0.15 0.1 0.2 paramGroup1 1.0000 0.0000 1
cevp_14 none relative 0.15 0.1 0.2 paramGroup1 1.0000 0.0000 1
cevp_15 none relative 0.15 0.1 0.2 paramGroup1 1.0000 0.0000 1
cevp_16 none relative 0.15 0.1 0.2 paramGroup1 1.0000 0.0000 1
cevp_17 none relative 0.15 0.1 0.2 paramGroup1 1.0000 0.0000 1
srrcs_10 fixed relative 0.15 0.1 0.2 paramGroup1 1.0000 0.0000 1
srrcs_11 none relative 0.15 0.1 0.2 paramGroup1 1.0000 0.0000 1
srrcs_12 fixed relative 0.15 0.1 0.2 paramGroup1 1.0000 0.0000 1
srrcs_13 none relative 0.15 0.1 0.2 paramGroup1 1.0000 0.0000 1
srrcs_14 none relative 0.15 0.1 0.2 paramGroup1 1.0000 0.0000 1
srrcs_15 none relative 0.15 0.1 0.2 paramGroup1 1.0000 0.0000 1
srrcs_16 none relative 0.15 0.1 0.2 paramGroup1 1.0000 0.0000 1
srrcs_17 none relative 0.15 0.1 0.2 paramGroup1 1.0000 0.0000 1
frost_10 fixed relative 2.0 2.0 2.0 paramGroup1 1.0000 0.0000 1
frost_11 fixed relative 2.0 2.0 2.0 paramGroup1 1.0000 0.0000 1
frost_12 fixed relative 2.0 2.0 2.0 paramGroup1 1.0000 0.0000 1
frost_13 fixed relative 2.0 2.0 2.0 paramGroup1 1.0000 0.0000 1
frost_14 fixed relative 2.0 2.0 2.0 paramGroup1 1.0000 0.0000 1
frost_15 fixed relative 2.0 2.0 2.0 paramGroup1 1.0000 0.0000 1
frost_16 fixed relative 2.0 2.0 2.0 paramGroup1 1.0000 0.0000 1
frost_17 fixed relative 2.0 2.0 2.0 paramGroup1 1.0000 0.0000 1
rrcs1_100 fixed relative 0.375 0.05 0.7 paramGroup1 1.0000 0.0000 1
rrcs1_101 none relative 0.375 0.05 0.7 paramGroup1 1.0000 0.0000 1
rrcs1_102 none relative 0.375 0.05 0.7 paramGroup1 1.0000 0.0000 1
rrcs1_103 none relative 0.375 0.05 0.7 paramGroup1 1.0000 0.0000 1
rrcs1_104 none relative 0.375 0.05 0.7 paramGroup1 1.0000 0.0000 1
rrcs1_105 none relative 0.375 0.05 1.0 paramGroup1 1.0000 0.0000 1
rrcs1_106 none relative 0.375 0.05 0.7 paramGroup1 1.0000 0.0000 1
rrcs2_100 fixed relative 0.0255 0.001 0.05 paramGroup1 1.0000 0.0000 1
rrcs2_101 none relative 0.0255 0.001 0.05 paramGroup1 1.0000 0.0000 1
rrcs2_102 none relative 0.0255 0.001 0.05 paramGroup1 1.0000 0.0000 1
rrcs2_103 none relative 0.0255 0.001 0.05 paramGroup1 1.0000 0.0000 1
rrcs2_104 none relative 0.0255 0.001 0.05 paramGroup1 1.0000 0.0000 1
rrcs2_105 none relative 0.0255 0.001 0.05 paramGroup1 1.0000 0.0000 1
rrcs2_106 none relative 0.0255 0.001 0.05 paramGroup1 1.0000 0.0000 1
trrcs_100 fixed relative 0.2 0.1 0.3 paramGroup1 1.0000 0.0000 1
trrcs_101 fixed relative 0.2 0.1 0.3 paramGroup1 1.0000 0.0000 1
trrcs_102 fixed relative 0.2 0.1 0.3 paramGroup1 1.0000 0.0000 1
trrcs_103 fixed relative 0.2 0.1 0.3 paramGroup1 1.0000 0.0000 1
trrcs_104 fixed relative 0.2 0.1 0.3 paramGroup1 1.0000 0.0000 1
trrcs_105 fixed relative 0.2 0.1 0.3 paramGroup1 1.0000 0.0000 1
trrcs_106 fixed relative 0.2 0.1 0.3 paramGroup1 1.0000 0.0000 1
mperc1_100 fixed relative 65 30 100 paramGroup1 1.0000 0.0000 1
mperc1_101 fixed relative 65 30 100 paramGroup1 1.0000 0.0000 1
mperc1_102 fixed relative 65 30 100 paramGroup1 1.0000 0.0000 1
mperc1_103 fixed relative 65 30 100 paramGroup1 1.0000 0.0000 1
mperc1_104 fixed relative 65 30 100 paramGroup1 1.0000 0.0000 1
mperc1_105 fixed relative 65 30 100 paramGroup1 1.0000 0.0000 1
mperc1_106 fixed relative 65 30 100 paramGroup1 1.0000 0.0000 1
mperc2_100 fixed relative 65 30 100 paramGroup1 1.0000 0.0000 1
mperc2_101 fixed relative 65 30 100 paramGroup1 1.0000 0.0000 1
mperc2_102 fixed relative 65 30 100 paramGroup1 1.0000 0.0000 1
mperc2_103 fixed relative 65 30 100 paramGroup1 1.0000 0.0000 1
mperc2_104 fixed relative 65 30 100 paramGroup1 1.0000 0.0000 1
mperc2_105 fixed relative 65 30 100 paramGroup1 1.0000 0.0000 1
mperc2_106 fixed relative 65 30 100 paramGroup1 1.0000 0.0000 1
sfrost_100 fixed relative 1.0 1.0 1.0 paramGroup1 1.0000 0.0000 1
sfrost_101 fixed relative 1.0 1.0 1.0 paramGroup1 1.0000 0.0000 1
sfrost_102 fixed relative 1.0 1.0 1.0 paramGroup1 1.0000 0.0000 1
sfrost_103 fixed relative 1.0 1.0 1.0 paramGroup1 1.0000 0.0000 1
sfrost_104 fixed relative 1.0 1.0 1.0 paramGroup1 1.0000 0.0000 1
sfrost_105 fixed relative 1.0 1.0 1.0 paramGroup1 1.0000 0.0000 1
sfrost_106 fixed relative 1.0 1.0 1.0 paramGroup1 1.0000 0.0000 1
macrate_100 fixed relative 0.2 0.1 0.3 paramGroup1 1.0000 0.0000 1
macrate_101 none relative 0.2 0.1 0.3 paramGroup1 1.0000 0.0000 1
macrate_102 none relative 0.2 0.1 0.3 paramGroup1 1.0000 0.0000 1
macrate_103 none relative 0.2 0.1 0.3 paramGroup1 1.0000 0.0000 1
macrate_104 none relative 0.2 0.1 0.3 paramGroup1 1.0000 0.0000 1
macrate_105 none relative 0.2 0.1 0.3 paramGroup1 1.0000 0.0000 1
macrate_106 none relative 0.2 0.1 0.3 paramGroup1 1.0000 0.0000 1
mactrinf_100 fixed relative 30 10 50 paramGroup1 1.0000 0.0000 1
mactrinf_101 none relative 30 10 50 paramGroup1 1.0000 0.0000 1
mactrinf_102 none relative 30 10 50 paramGroup1 1.0000 0.0000 1
mactrinf_103 none relative 30 10 50 paramGroup1 1.0000 0.0000 1
mactrinf_104 none relative 30 10 50 paramGroup1 1.0000 0.0000 1
mactrinf_105 none relative 30 10 50 paramGroup1 1.0000 0.0000 1
mactrinf_106 none relative 30 10 50 paramGroup1 1.0000 0.0000 1
mactrsm_100 fixed relative 0.675 0.5 0.85 paramGroup1 1.0000 0.0000 1
mactrsm_101 fixed relative 0.675 0.5 0.85 paramGroup1 1.0000 0.0000 1
mactrsm_102 fixed relative 0.675 0.5 0.85 paramGroup1 1.0000 0.0000 1
mactrsm_103 fixed relative 0.675 0.5 0.85 paramGroup1 1.0000 0.0000 1
mactrsm_104 fixed relative 0.675 0.5 0.85 paramGroup1 1.0000 0.0000 1
mactrsm_105 fixed relative 0.675 0.5 0.85 paramGroup1 1.0000 0.0000 1
mactrsm_106 fixed relative 0.675 0.5 0.85 paramGroup1 1.0000 0.0000 1
srrate_100 fixed relative 0.15 0.1 0.2 paramGroup1 1.0000 0.0000 1
srrate_101 none relative 0.15 0.1 0.2 paramGroup1 1.0000 0.0000 1
srrate_102 none relative 0.15 0.1 0.2 paramGroup1 1.0000 0.0000 1
srrate_103 none relative 0.15 0.1 0.2 paramGroup1 1.0000 0.0000 1
srrate_104 none relative 0.15 0.1 0.2 paramGroup1 1.0000 0.0000 1
srrate_105 none relative 0.15 0.1 0.2 paramGroup1 1.0000 0.0000 1
srrate_106 none relative 0.15 0.1 0.2 paramGroup1 1.0000 0.0000 1
wcwp_100 fixed relative 0.07 0.04 0.1 paramGroup1 1.0000 0.0000 1
wcwp_101 none relative 0.07 0.04 0.1 paramGroup1 1.0000 0.0000 1
wcwp_102 none relative 0.07 0.04 0.1 paramGroup1 1.0000 0.0000 1
wcwp_103 none relative 0.07 0.04 0.1 paramGroup1 1.0000 0.0000 1
wcwp_104 none relative 0.07 0.04 0.1 paramGroup1 1.0000 0.0000 1
wcwp_105 none relative 0.07 0.04 0.1 paramGroup1 1.0000 0.0000 1
wcwp_106 none relative 0.07 0.04 0.1 paramGroup1 1.0000 0.0000 1
wcfc_100 fixed relative 0.25 0.1 0.4 paramGroup1 1.0000 0.0000 1
wcfc_101 none relative 0.25 0.1 0.4 paramGroup1 1.0000 0.0000 1
wcfc_102 none relative 0.25 0.1 0.5 paramGroup1 1.0000 0.0000 1
wcfc_103 none relative 0.25 0.1 0.4 paramGroup1 1.0000 0.0000 1
wcfc_104 none relative 0.25 0.1 0.4 paramGroup1 1.0000 0.0000 1
wcfc_105 none relative 0.25 0.1 0.4 paramGroup1 1.0000 0.0000 1
wcfc_106 none relative 0.25 0.1 0.4 paramGroup1 1.0000 0.0000 1
wcep_100 fixed relative 0.055 0.01 0.1 paramGroup1 1.0000 0.0000 1
wcep_101 none relative 0.055 0.01 0.1 paramGroup1 1.0000 0.0000 1
wcep_102 none relative 0.055 0.01 0.1 paramGroup1 1.0000 0.0000 1
wcep_103 none relative 0.055 0.01 0.1 paramGroup1 1.0000 0.0000 1
wcep_104 none relative 0.055 0.01 0.35 paramGroup1 1.0000 0.0000 1
wcep_105 none relative 0.055 0.01 0.35 paramGroup1 1.0000 0.0000 1
wcep_106 none relative 0.055 0.01 0.1 paramGroup1 1.0000 0.0000 1
* observation groups
warmup_obs
calib_obs
valid_obs
* observation data
o73061 0.0 0.0 warmup_obs
o73062 0.0 0.0 warmup_obs
o73063 0.0 0.0 warmup_obs
o73064 0.0 0.0 warmup_obs
o73065 0.0 0.0 warmup_obs
o73066 0.0 0.0 warmup_obs
o73067 0.0 0.0 warmup_obs
o73068 0.0 0.0 warmup_obs
o73069 0.0 0.0 warmup_obs
o73070 0.0 0.0 warmup_obs
o73071 0.0 0.0 warmup_obs
o73072 0.0 0.0 warmup_obs
o73073 0.0 0.0 warmup_obs
o73074 0.0 0.0 warmup_obs
o73075 0.0 0.0 warmup_obs
o73076 0.0 0.0 warmup_obs
o73077 0.0 0.0 warmup_obs
o73078 0.0 0.0 warmup_obs
o73079 0.0 0.0 warmup_obs
o73080 0.0 0.0 warmup_obs
o73081 0.0 0.0 warmup_obs
o73082 0.0 0.0 warmup_obs
o73083 0.0 0.0 warmup_obs
o73084 0.0 0.0 warmup_obs
o73085 0.0 0.0 warmup_obs
o73086 0.0 0.0 warmup_obs
o73087 0.0 0.0 warmup_obs
o73088 0.0 0.0 warmup_obs
o73089 0.0 0.0 warmup_obs
o73090 0.0 0.0 warmup_obs
o73091 0.0 0.0 warmup_obs
o73092 0.0 0.0 warmup_obs
o73093 0.0 0.0 warmup_obs
o73094 0.0 0.0 warmup_obs
o73095 0.0 0.0 warmup_obs
o73096 0.0 0.0 warmup_obs
o73097 0.0 0.0 warmup_obs
o73098 0.0 0.0 warmup_obs
o73099 0.0 0.0 warmup_obs
o73100 0.0 0.0 warmup_obs
o73101 0.0 0.0 warmup_obs
o73102 0.0 0.0 warmup_obs
o73103 0.0 0.0 warmup_obs
o73104 0.0 0.0 warmup_obs
o73105 0.0 0.0 warmup_obs
o73106 0.0 0.0 warmup_obs
o73107 0.0 0.0 warmup_obs
o73108 0.0 0.0 warmup_obs
o73109 0.0 0.0 warmup_obs
o73110 0.0 0.0 warmup_obs
o73111 0.0 0.0 warmup_obs
o73112 0.0 0.0 warmup_obs
o73113 0.0 0.0 warmup_obs
o73114 0.0 0.0 warmup_obs
o73115 0.0 0.0 warmup_obs
o73116 0.0 0.0 warmup_obs
o73117 0.0 0.0 warmup_obs
o73118 0.0 0.0 warmup_obs
o73119 0.0 0.0 warmup_obs
o73120 0.0 0.0 warmup_obs
o73121 0.0 0.0 warmup_obs
o73122 0.0 0.0 warmup_obs
o73123 0.0 0.0 warmup_obs
o73124 0.0 0.0 warmup_obs
o73125 0.0 0.0 warmup_obs
o73126 0.0 0.0 warmup_obs
o73127 0.0 0.0 warmup_obs
o73128 0.0 0.0 warmup_obs
o73129 0.0 0.0 warmup_obs
o73130 0.0 0.0 warmup_obs
o73131 0.0 0.0 warmup_obs
o73132 0.0 0.0 warmup_obs
o73133 0.0 0.0 warmup_obs
o73134 0.0 0.0 warmup_obs
o73135 0.0 0.0 warmup_obs
o73136 0.0 0.0 warmup_obs
o73137 0.0 0.0 warmup_obs
o73138 0.0 0.0 warmup_obs
o73139 0.0 0.0 warmup_obs
o73140 0.0 0.0 warmup_obs
o73141 0.0 0.0 warmup_obs
o73142 0.0 0.0 warmup_obs
o73143 0.0 0.0 warmup_obs
o73144 0.0 0.0 warmup_obs
o73145 0.0 0.0 warmup_obs
o73146 0.0 0.0 warmup_obs
o73147 0.0 0.0 warmup_obs
o73148 0.0 0.0 warmup_obs
o73149 0.0 0.0 warmup_obs
o73150 0.0 0.0 warmup_obs
o73151 0.0 0.0 warmup_obs
o73152 0.0 0.0 warmup_obs
o73153 0.0 0.0 warmup_obs
o73154 0.0 0.0 warmup_obs
o73155 0.0 0.0 warmup_obs
o73156 0.0 0.0 warmup_obs
o73157 0.0 0.0 warmup_obs
o73158 0.0 0.0 warmup_obs
o73159 0.0 0.0 warmup_obs
o73160 0.0 0.0 warmup_obs
o73161 0.0 0.0 warmup_obs
o73162 0.0 0.0 warmup_obs
o73163 0.0 0.0 warmup_obs
o73164 0.0 0.0 warmup_obs
o73165 0.0 0.0 warmup_obs
o73166 0.0 0.0 warmup_obs
o73167 0.0 0.0 warmup_obs
o73168 0.0 0.0 warmup_obs
o73169 0.0 0.0 warmup_obs
o73170 0.0 0.0 warmup_obs
o73171 0.0 0.0 warmup_obs
o73172 0.0 0.0 warmup_obs
o73173 0.0 0.0 warmup_obs
o73174 0.0 0.0 warmup_obs
o73175 0.0 0.0 warmup_obs
o73176 0.0 0.0 warmup_obs
o73177 0.0 0.0 warmup_obs
o73178 0.0 0.0 warmup_obs
o73179 0.0 0.0 warmup_obs
o73180 0.0 0.0 warmup_obs
o73181 0.0 0.0 warmup_obs
o73182 0.0 0.0 warmup_obs
o73183 0.0 0.0 warmup_obs
o73184 0.0 0.0 warmup_obs
o73185 0.0 0.0 warmup_obs
o73186 0.0 0.0 warmup_obs
o73187 0.0 0.0 warmup_obs
o73188 0.0 0.0 warmup_obs
o73189 0.0 0.0 warmup_obs
o73190 0.0 0.0 warmup_obs
o73191 0.0 0.0 warmup_obs
o73192 0.0 0.0 warmup_obs
o73193 0.0 0.0 warmup_obs
o73194 0.0 0.0 warmup_obs
o73195 0.0 0.0 warmup_obs
o73196 0.0 0.0 warmup_obs
o73197 0.0 0.0 warmup_obs
o73198 0.0 0.0 warmup_obs
o73199 0.0 0.0 warmup_obs
o73200 0.0 0.0 warmup_obs
o73201 0.0 0.0 warmup_obs
o73202 0.0 0.0 warmup_obs
o73203 0.0 0.0 warmup_obs
o73204 0.0 0.0 warmup_obs
o73205 0.0 0.0 warmup_obs
o73206 0.0 0.0 warmup_obs
o73207 0.0 0.0 warmup_obs
o73208 0.0 0.0 warmup_obs
o73209 0.0 0.0 warmup_obs
o73210 0.0 0.0 warmup_obs
o73211 0.0 0.0 warmup_obs
o73212 0.0 0.0 warmup_obs
o73213 0.0 0.0 warmup_obs
o73214 0.0 0.0 warmup_obs
o73215 0.0 0.0 warmup_obs
o73216 0.0 0.0 warmup_obs
o73217 0.0 0.0 warmup_obs
o73218 0.0 0.0 warmup_obs
o73219 0.0 0.0 warmup_obs
o73220 0.0 0.0 warmup_obs
o73221 0.0 0.0 warmup_obs
o73222 0.0 0.0 warmup_obs
o73223 0.0 0.0 warmup_obs
o73224 0.0 0.0 warmup_obs
o73225 0.0 0.0 warmup_obs
o73226 0.0 0.0 warmup_obs
o73227 0.0 0.0 warmup_obs
o73228 0.0 0.0 warmup_obs
o73229 0.0 0.0 warmup_obs
o73230 0.0 0.0 warmup_obs
o73231 0.0 0.0 warmup_obs
o73232 0.0 0.0 warmup_obs
o73233 0.0 0.0 warmup_obs
o73234 0.0 0.0 warmup_obs
o73235 0.0 0.0 warmup_obs
o73236 0.0 0.0 warmup_obs
o73237 0.0 0.0 warmup_obs
o73238 0.0 0.0 warmup_obs
o73239 0.0 0.0 warmup_obs
o73240 0.0 0.0 warmup_obs
o73241 0.0 0.0 warmup_obs
o73242 0.0 0.0 warmup_obs
o73243 0.0 0.0 warmup_obs
o73244 0.0 0.0 warmup_obs
o73245 0.0 0.0 warmup_obs
o73246 0.0 0.0 warmup_obs
o73247 0.0 0.0 warmup_obs
o73248 0.0 0.0 warmup_obs
o73249 0.0 0.0 warmup_obs
o73250 0.0 0.0 warmup_obs
o73251 0.0 0.0 warmup_obs
o73252 0.0 0.0 warmup_obs
o73253 0.0 0.0 warmup_obs
o73254 0.0 0.0 warmup_obs
o73255 0.0 0.0 warmup_obs
o73256 0.0 0.0 warmup_obs
o73257 0.0 0.0 warmup_obs
o73258 0.0 0.0 warmup_obs
o73259 0.0 0.0 warmup_obs
o73260 0.0 0.0 warmup_obs
o73261 0.0 0.0 warmup_obs
o73262 0.0 0.0 warmup_obs
o73263 0.0 0.0 warmup_obs
o73264 0.0 0.0 warmup_obs
o73265 0.0 0.0 warmup_obs
o73266 0.0 0.0 warmup_obs
o73267 0.0 0.0 warmup_obs
o73268 0.0 0.0 warmup_obs
o73269 0.0 0.0 warmup_obs
o73270 0.0 0.0 warmup_obs
o73271 0.0 0.0 warmup_obs
o73272 0.0 0.0 warmup_obs
o73273 0.0 0.0 warmup_obs
o73274 0.0 0.0 warmup_obs
o73275 0.0 0.0 warmup_obs
o73276 0.0 0.0 warmup_obs
o73277 0.0 0.0 warmup_obs
o73278 0.0 0.0 warmup_obs
o73279 0.0 0.0 warmup_obs
o73280 0.0 0.0 warmup_obs
o73281 0.0 0.0 warmup_obs
o73282 0.0 0.0 warmup_obs
o73283 0.0 0.0 warmup_obs
o73284 0.0 0.0 warmup_obs
o73285 0.0 0.0 warmup_obs
o73286 0.0 0.0 warmup_obs
o73287 0.0 0.0 warmup_obs
o73288 0.0 0.0 warmup_obs
o73289 0.0 0.0 warmup_obs
o73290 0.0 0.0 warmup_obs
o73291 0.0 0.0 warmup_obs
o73292 0.0 0.0 warmup_obs
o73293 0.0 0.0 warmup_obs
o73294 0.0 0.0 warmup_obs
o73295 0.0 0.0 warmup_obs
o73296 0.0 0.0 warmup_obs
o73297 0.0 0.0 warmup_obs
o73298 0.0 0.0 warmup_obs
o73299 0.0 0.0 warmup_obs
o73300 0.0 0.0 warmup_obs
o73301 0.0 0.0 warmup_obs
o73302 0.0 0.0 warmup_obs
o73303 0.0 0.0 warmup_obs
o73304 0.0 0.0 warmup_obs
o73305 0.0 0.0 warmup_obs
o73306 0.0 0.0 warmup_obs
o73307 0.0 0.0 warmup_obs
o73308 0.0 0.0 warmup_obs
o73309 0.0 0.0 warmup_obs
o73310 0.0 0.0 warmup_obs
o73311 0.0 0.0 warmup_obs
o73312 0.0 0.0 warmup_obs
o73313 0.0 0.0 warmup_obs
o73314 0.0 0.0 warmup_obs
o73315 0.0 0.0 warmup_obs
o73316 0.0 0.0 warmup_obs
o73317 0.0 0.0 warmup_obs
o73318 0.0 0.0 warmup_obs
o73319 0.0 0.0 warmup_obs
o73320 0.0 0.0 warmup_obs
o73321 0.0 0.0 warmup_obs
o73322 0.0 0.0 warmup_obs
o73323 0.0 0.0 warmup_obs
o73324 0.0 0.0 warmup_obs
o73325 0.0 0.0 warmup_obs
o73326 0.0 0.0 warmup_obs
o73327 0.0 0.0 warmup_obs
o73328 0.0 0.0 warmup_obs
o73329 0.0 0.0 warmup_obs
o73330 0.0 0.0 warmup_obs
o73331 0.0 0.0 warmup_obs
o73332 0.0 0.0 warmup_obs
o73333 0.0 0.0 warmup_obs
o73334 0.0 0.0 warmup_obs
o73335 0.0 0.0 warmup_obs
o73336 0.0 0.0 warmup_obs
o73337 0.0 0.0 warmup_obs
o73338 0.0 0.0 warmup_obs
o73339 0.0 0.0 warmup_obs
o73340 0.0 0.0 warmup_obs
o73341 0.0 0.0 warmup_obs
o73342 0.0 0.0 warmup_obs
o73343 0.0 0.0 warmup_obs
o73344 0.0 0.0 warmup_obs
o73345 0.0 0.0 warmup_obs
o73346 0.0 0.0 warmup_obs
o73347 0.0 0.0 warmup_obs
o73348 0.0 0.0 warmup_obs
o73349 0.0 0.0 warmup_obs
o73350 0.0 0.0 warmup_obs
o73351 0.0 0.0 warmup_obs
o73352 0.0 0.0 warmup_obs
o73353 0.0 0.0 warmup_obs
o73354 0.0 0.0 warmup_obs
o73355 0.0 0.0 warmup_obs
o73356 0.0 0.0 warmup_obs
o73357 0.0 0.0 warmup_obs
o73358 0.0 0.0 warmup_obs
o73359 0.0 0.0 warmup_obs
o73360 0.0 0.0 warmup_obs
o73361 0.0 0.0 warmup_obs
o73362 0.0 0.0 warmup_obs
o73363 0.0 0.0 warmup_obs
o73364 0.0 0.0 warmup_obs
o73365 0.0 0.0 warmup_obs
o73366 0.0 0.0 warmup_obs
o73367 0.0 0.0 warmup_obs
o73368 0.0 0.0 warmup_obs
o73369 0.0 0.0 warmup_obs
o73370 0.0 0.0 warmup_obs
o73371 0.0 0.0 warmup_obs
o73372 0.0 0.0 warmup_obs
o73373 0.0 0.0 warmup_obs
o73374 0.0 0.0 warmup_obs
o73375 0.0 0.0 warmup_obs
o73376 0.0 0.0 warmup_obs
o73377 0.0 0.0 warmup_obs
o73378 0.0 0.0 warmup_obs
o73379 0.0 0.0 warmup_obs
o73380 0.0 0.0 warmup_obs
o73381 0.0 0.0 warmup_obs
o73382 0.0 0.0 warmup_obs
o73383 0.0 0.0 warmup_obs
o73384 0.0 0.0 warmup_obs
o73385 0.0 0.0 warmup_obs
o73386 0.0 0.0 warmup_obs
o73387 0.0 0.0 warmup_obs
o73388 0.0 0.0 warmup_obs
o73389 0.0 0.0 warmup_obs
o73390 0.0 0.0 warmup_obs
o73391 0.0 0.0 warmup_obs
o73392 0.0 0.0 warmup_obs
o73393 0.0 0.0 warmup_obs
o73394 0.0 0.0 warmup_obs
o73395 0.0 0.0 warmup_obs
o73396 0.0 0.0 warmup_obs
o73397 0.0 0.0 warmup_obs
o73398 0.0 0.0 warmup_obs
o73399 0.0 0.0 warmup_obs
o73400 0.0 0.0 warmup_obs
o73401 0.0 0.0 warmup_obs
o73402 0.0 0.0 warmup_obs
o73403 0.0 0.0 warmup_obs
o73404 0.0 0.0 warmup_obs
o73405 0.0 0.0 warmup_obs
o73406 0.0 0.0 warmup_obs
o73407 0.0 0.0 warmup_obs
o73408 0.0 0.0 warmup_obs
o73409 0.0 0.0 warmup_obs
o73410 0.0 0.0 warmup_obs
o73411 0.0 0.0 warmup_obs
o73412 0.0 0.0 warmup_obs
o73413 0.0 0.0 warmup_obs
o73414 0.0 0.0 warmup_obs
o73415 0.0 0.0 warmup_obs
o73416 0.0 0.0 warmup_obs
o73417 0.0 0.0 warmup_obs
o73418 0.0 0.0 warmup_obs
o73419 0.0 0.0 warmup_obs
o73420 0.0 0.0 warmup_obs
o73421 0.0 0.0 warmup_obs
o73422 0.0 0.0 warmup_obs
o73423 0.0 0.0 warmup_obs
o73424 0.0 0.0 warmup_obs
o73425 0.0 0.0 warmup_obs
o73426 0.0 0.0 warmup_obs
o73427 0.0 0.0 calib_obs
o73428 0.0 0.0 calib_obs
o73429 0.0 0.0 calib_obs
o73430 0.0 0.0 calib_obs
o73431 0.0 0.0 calib_obs
o73432 0.0 0.0 calib_obs
o73433 0.0 0.0 calib_obs
o73434 0.0 0.0 calib_obs
o73435 0.0 0.0 calib_obs
o73436 0.08 0.05 calib_obs
o73437 0.07 0.05 calib_obs
o73438 0.08 0.05 calib_obs
o73439 0.09 0.05 calib_obs
o73440 0.09 0.05 calib_obs
o73441 0.08 0.05 calib_obs
o73442 0.08 0.05 calib_obs
o73443 0.08 0.05 calib_obs
o73444 0.09 0.05 calib_obs
o73445 0.08 0.05 calib_obs
o73446 0.08 0.05 calib_obs
o73447 0.08 0.05 calib_obs
o73448 0.08 0.05 calib_obs
o73449 0.08 0.05 calib_obs
o73450 0.07 0.05 calib_obs
o73451 0.08 0.05 calib_obs
o73452 0.08 0.05 calib_obs
o73453 0.08 0.05 calib_obs
o73454 0.08 0.05 calib_obs
o73455 0.07 0.05 calib_obs
o73456 0.07 0.05 calib_obs
o73457 0.07 0.05 calib_obs
o73458 0.07 0.05 calib_obs
o73459 0.07 0.05 calib_obs
o73460 0.07 0.05 calib_obs
o73461 0.07 0.05 calib_obs
o73462 0.07 0.05 calib_obs
o73463 0.07 0.05 calib_obs
o73464 0.07 0.05 calib_obs
o73465 0.07 0.05 calib_obs
o73466 0.07 0.05 calib_obs
o73467 0.07 0.05 calib_obs
o73468 0.06 0.05 calib_obs
o73469 0.06 0.05 calib_obs
o73470 0.07 0.05 calib_obs
o73471 0.07 0.05 calib_obs
o73472 0.07 0.05 calib_obs
o73473 0.07 0.05 calib_obs
o73474 0.07 0.05 calib_obs
o73475 0.07 0.05 calib_obs
o73476 0.07 0.05 calib_obs
o73477 0.07 0.05 calib_obs
o73478 0.06 0.05 calib_obs
o73479 0.07 0.05 calib_obs
o73480 0.08 0.05 calib_obs
o73481 0.08 0.05 calib_obs
o73482 0.07 0.05 calib_obs
o73483 0.07 0.05 calib_obs
o73484 0.07 0.05 calib_obs
o73485 0.08 0.05 calib_obs
o73486 0.08 0.05 calib_obs
o73487 0.08 0.05 calib_obs
o73488 0.08 0.05 calib_obs
o73489 0.07 0.05 calib_obs
o73490 0.08 0.05 calib_obs
o73491 0.07 0.05 calib_obs
o73492 0.07 0.05 calib_obs
o73493 0.07 0.05 calib_obs
o73494 0.07 0.05 calib_obs
o73495 0.08 0.05 calib_obs
o73496 0.07 0.05 calib_obs
o73497 0.07 0.05 calib_obs
o73498 0.07 0.05 calib_obs
o73499 0.07 0.05 calib_obs
o73500 0.08 0.05 calib_obs
o73501 0.08 0.05 calib_obs
o73502 0.09 0.05 calib_obs
o73503 0.09 0.05 calib_obs
o73504 0.09 0.05 calib_obs
o73505 0.09 0.05 calib_obs
o73506 0.09 0.05 calib_obs
o73507 0.0 0.0 calib_obs
o73508 0.0 0.0 calib_obs
o73509 0.0 0.0 calib_obs
o73510 0.0 0.0 calib_obs
o73511 0.0 0.0 calib_obs
o73512 0.0 0.0 calib_obs
o73513 0.0 0.0 calib_obs
o73514 0.0 0.0 calib_obs
o73515 0.0 0.0 calib_obs
o73516 0.0 0.0 calib_obs
o73517 0.0 0.0 calib_obs
o73518 0.0 0.0 calib_obs
o73519 0.0 0.0 calib_obs
o73520 0.0 0.0 calib_obs
o73521 0.09 0.05 calib_obs
o73522 0.1 0.05 calib_obs
o73523 0.0 0.0 calib_obs
o73524 0.0 0.0 calib_obs
o73525 0.0 0.0 calib_obs
o73526 0.0 0.0 calib_obs
o73527 0.0 0.0 calib_obs
o73528 0.0 0.0 calib_obs
o73529 0.0 0.0 calib_obs
o73530 0.0 0.0 calib_obs
o73531 0.0 0.0 calib_obs
o73532 0.0 0.0 calib_obs
o73533 0.0 0.0 calib_obs
o73534 0.0 0.0 calib_obs
o73535 0.0 0.0 calib_obs
o73536 0.0 0.0 calib_obs
o73537 0.0 0.0 calib_obs
o73538 0.0 0.0 calib_obs
o73539 0.0 0.0 calib_obs
o73540 0.0 0.0 calib_obs
o73541 0.0 0.0 calib_obs
o73542 0.0 0.0 calib_obs
o73543 0.0 0.0 calib_obs
o73544 0.0 0.0 calib_obs
o73545 0.0 0.0 calib_obs
o73546 0.0 0.0 calib_obs
o73547 0.0 0.0 calib_obs
o73548 0.0 0.0 calib_obs
o73549 0.0 0.0 calib_obs
o73550 0.0 0.0 calib_obs
o73551 0.0 0.0 calib_obs
o73552 0.0 0.0 calib_obs
o73553 0.0 0.0 calib_obs
o73554 0.0 0.0 calib_obs
o73555 0.0 0.0 calib_obs
o73556 0.0 0.0 calib_obs
o73557 0.0 0.0 calib_obs
o73558 0.09 0.05 calib_obs
o73559 0.0 0.0 calib_obs
o73560 0.0 0.0 calib_obs
o73561 0.0 0.0 calib_obs
o73562 0.0 0.0 calib_obs
o73563 0.0 0.0 calib_obs
o73564 0.0 0.0 calib_obs
o73565 0.0 0.0 calib_obs
o73566 0.0 0.0 calib_obs
o73567 0.0 0.0 calib_obs
o73568 0.0 0.0 calib_obs
o73569 0.0 0.0 calib_obs
o73570 0.0 0.0 calib_obs
o73571 0.0 0.0 calib_obs
o73572 0.0 0.0 calib_obs
o73573 0.0 0.0 calib_obs
o73574 0.0 0.0 calib_obs
o73575 0.0 0.0 calib_obs
o73576 0.0 0.0 calib_obs
o73577 0.0 0.0 calib_obs
o73578 0.0 0.0 calib_obs
o73579 0.0 0.0 calib_obs
o73580 0.0 0.0 calib_obs
o73581 0.0 0.0 calib_obs
o73582 0.0 0.0 calib_obs
o73583 0.0 0.0 calib_obs
o73584 0.0 0.0 calib_obs
o73585 0.0 0.0 calib_obs
o73586 0.0 0.0 calib_obs
o73587 0.0 0.0 calib_obs
o73588 0.0 0.0 calib_obs
o73589 0.0 0.0 calib_obs
o73590 0.0 0.0 calib_obs
o73591 0.0 0.0 calib_obs
o73592 0.0 0.0 calib_obs
o73593 0.0 0.0 calib_obs
o73594 0.0 0.0 calib_obs
o73595 0.0 0.0 calib_obs
o73596 0.0 0.0 calib_obs
o73597 0.0 0.0 calib_obs
o73598 0.0 0.0 calib_obs
o73599 0.0 0.0 calib_obs
o73600 0.0 0.0 calib_obs
o73601 0.0 0.0 calib_obs
o73602 0.0 0.0 calib_obs
o73603 0.0 0.0 calib_obs
o73604 0.0 0.0 calib_obs
o73605 0.0 0.0 calib_obs
o73606 0.0 0.0 calib_obs
o73607 0.0 0.0 calib_obs
o73608 0.0 0.0 calib_obs
o73609 0.0 0.0 calib_obs
o73610 0.0 0.0 calib_obs
o73611 0.0 0.0 calib_obs
o73612 0.0 0.0 calib_obs
o73613 0.0 0.0 calib_obs
o73614 0.0 0.0 calib_obs
o73615 0.0 0.0 calib_obs
o73616 0.0 0.0 calib_obs
o73617 0.0 0.0 calib_obs
o73618 0.0 0.0 calib_obs
o73619 0.0 0.0 calib_obs
o73620 0.0 0.0 calib_obs
o73621 0.0 0.0 calib_obs
o73622 0.0 0.0 calib_obs
o73623 0.0 0.0 calib_obs
o73624 0.0 0.0 calib_obs
o73625 0.0 0.0 calib_obs
o73626 0.0 0.0 calib_obs
o73627 0.0 0.0 calib_obs
o73628 0.0 0.0 calib_obs
o73629 0.0 0.0 calib_obs
o73630 0.0 0.0 calib_obs
o73631 0.0 0.0 calib_obs
o73632 0.0 0.0 calib_obs
o73633 0.0 0.0 calib_obs
o73634 0.0 0.0 calib_obs
o73635 0.0 0.0 calib_obs
o73636 0.0 0.0 calib_obs
o73637 0.0 0.0 calib_obs
o73638 0.0 0.0 calib_obs
o73639 0.0 0.0 calib_obs
o73640 0.0 0.0 calib_obs
o73641 0.0 0.0 calib_obs
o73642 0.0 0.0 calib_obs
o73643 0.0 0.0 calib_obs
o73644 0.0 0.0 calib_obs
o73645 0.0 0.0 calib_obs
o73646 0.0 0.0 calib_obs
o73647 0.05 0.05 calib_obs
o73648 0.05 0.05 calib_obs
o73649 0.05 0.05 calib_obs
o73650 0.05 0.05 calib_obs
o73651 0.05 0.05 calib_obs
o73652 0.05 0.05 calib_obs
o73653 0.05 0.05 calib_obs
o73654 0.05 0.05 calib_obs
o73655 0.05 0.05 calib_obs
o73656 0.05 0.05 calib_obs
o73657 0.05 0.05 calib_obs
o73658 0.05 0.05 calib_obs
o73659 0.05 0.05 calib_obs
o73660 0.05 0.05 calib_obs
o73661 0.05 0.05 calib_obs
o73662 0.04 0.05 calib_obs
o73663 0.04 0.05 calib_obs
o73664 0.04 0.05 calib_obs
o73665 0.04 0.05 calib_obs
o73666 0.04 0.05 calib_obs
o73667 0.04 0.05 calib_obs
o73668 0.04 0.05 calib_obs
o73669 0.04 0.05 calib_obs
o73670 0.05 0.05 calib_obs
o73671 0.04 0.05 calib_obs
o73672 0.04 0.05 calib_obs
o73673 0.04 0.05 calib_obs
o73674 0.04 0.05 calib_obs
o73675 0.04 0.05 calib_obs
o73676 0.04 0.05 calib_obs
o73677 0.04 0.05 calib_obs
o73678 0.05 0.05 calib_obs
o73679 0.05 0.05 calib_obs
o73680 0.05 0.05 calib_obs
o73681 0.06 0.05 calib_obs
o73682 0.06 0.05 calib_obs
o73683 0.06 0.05 calib_obs
o73684 0.06 0.05 calib_obs
o73685 0.06 0.05 calib_obs
o73686 0.06 0.05 calib_obs
o73687 0.06 0.05 calib_obs
o73688 0.06 0.05 calib_obs
o73689 0.06 0.05 calib_obs
o73690 0.06 0.05 calib_obs
o73691 0.06 0.05 calib_obs
o73692 0.06 0.05 calib_obs
o73693 0.06 0.05 calib_obs
o73694 0.06 0.05 calib_obs
o73695 0.06 0.05 calib_obs
o73696 0.06 0.05 calib_obs
o73697 0.06 0.05 calib_obs
o73698 0.06 0.05 calib_obs
o73699 0.06 0.05 calib_obs
o73700 0.06 0.05 calib_obs
o73701 0.06 0.05 calib_obs
o73702 0.07 0.05 calib_obs
o73703 0.07 0.05 calib_obs
o73704 0.07 0.05 calib_obs
o73705 0.07 0.05 calib_obs
o73706 0.07 0.05 calib_obs
o73707 0.08 0.05 calib_obs
o73708 0.08 0.05 calib_obs
o73709 0.09 0.05 calib_obs
o73710 0.1 0.05 calib_obs
o73711 0.1 0.05 calib_obs
o73712 0.13 0.05 calib_obs
o73713 0.15 0.05 calib_obs
o73714 0.15 0.05 calib_obs
o73715 0.17 0.05 calib_obs
o73716 0.18 0.05 calib_obs
o73717 0.18 0.05 calib_obs
o73718 0.18 0.05 calib_obs
o73719 0.2 0.05 calib_obs
o73720 0.2 0.05 calib_obs
o73721 0.2 0.05 calib_obs
o73722 0.18 0.05 calib_obs
o73723 0.18 0.05 calib_obs
o73724 0.18 0.05 calib_obs
o73725 0.2 0.05 calib_obs
o73726 0.2 0.05 calib_obs
o73727 0.2 0.05 calib_obs
o73728 0.22 0.05 calib_obs
o73729 0.24 0.05 calib_obs
o73730 0.24 0.05 calib_obs
o73731 0.24 0.05 calib_obs
o73732 0.24 0.05 calib_obs
o73733 0.22 0.05 calib_obs
o73734 0.22 0.05 calib_obs
o73735 0.22 0.05 calib_obs
o73736 0.22 0.05 calib_obs
o73737 0.22 0.05 calib_obs
o73738 0.22 0.05 calib_obs
o73739 0.22 0.05 calib_obs
o73740 0.24 0.05 calib_obs
o73741 0.24 0.05 calib_obs
o73742 0.3 0.05 calib_obs
o73743 0.3 0.05 calib_obs
o73744 0.3 0.05 calib_obs
o73745 0.3 0.05 calib_obs
o73746 0.3 0.05 calib_obs
o73747 0.3 0.05 calib_obs
o73748 0.3 0.05 calib_obs
o73749 0.33 0.05 calib_obs
o73750 0.36 0.05 calib_obs
o73751 0.36 0.05 calib_obs
o73752 0.36 0.05 calib_obs
o73753 0.36 0.05 calib_obs
o73754 0.36 0.05 calib_obs
o73755 0.43 0.05 calib_obs
o73756 0.46 0.05 calib_obs
o73757 0.46 0.05 calib_obs
o73758 0.55 0.05 calib_obs
o73759 0.6 0.05 calib_obs
o73760 0.6 0.05 calib_obs
o73761 0.65 0.05 calib_obs
o73762 0.65 0.05 calib_obs
o73763 0.65 0.05 calib_obs
o73764 0.75 0.05 calib_obs
o73765 0.7 0.05 calib_obs
o73766 0.7 0.05 calib_obs
o73767 0.7 0.05 calib_obs
o73768 0.75 0.05 calib_obs
o73769 0.8 0.05 calib_obs
o73770 0.8 0.05 calib_obs
o73771 0.8 0.05 calib_obs
o73772 0.8 0.05 calib_obs
o73773 0.87 0.05 calib_obs
o73774 0.8 0.05 calib_obs
o73775 0.8 0.05 calib_obs
o73776 0.8 0.05 calib_obs
o73777 0.8 0.05 calib_obs
o73778 0.75 0.05 calib_obs
o73779 0.75 0.05 calib_obs
o73780 0.7 0.05 calib_obs
o73781 0.7 0.05 calib_obs
o73782 0.68 0.05 calib_obs
o73783 0.65 0.05 calib_obs
o73784 0.65 0.05 calib_obs
o73785 0.61 0.05 calib_obs
o73786 0.6 0.05 calib_obs
o73787 0.6 0.05 calib_obs
o73788 0.56 0.05 calib_obs
o73789 0.55 0.05 calib_obs
o73790 0.55 0.05 calib_obs
o73791 0.55 0.05 calib_obs
o73792 0.55 0.05 calib_obs
o73793 0.53 0.05 calib_obs
o73794 0.54 0.05 calib_obs
o73795 0.55 0.05 calib_obs
o73796 0.6 0.05 calib_obs
o73797 0.71 0.05 calib_obs
o73798 0.74 0.05 calib_obs
o73799 0.7 0.05 calib_obs
o73800 0.69 0.05 calib_obs
o73801 0.66 0.05 calib_obs
o73802 0.65 0.05 calib_obs
o73803 0.6 0.05 calib_obs
o73804 0.58 0.05 calib_obs
o73805 0.55 0.05 calib_obs
o73806 0.52 0.05 calib_obs
o73807 0.49 0.05 calib_obs
o73808 0.46 0.05 calib_obs
o73809 0.46 0.05 calib_obs
o73810 0.44 0.05 calib_obs
o73811 0.41 0.05 calib_obs
o73812 0.39 0.05 calib_obs
o73813 0.39 0.05 calib_obs
o73814 0.36 0.05 calib_obs
o73815 0.36 0.05 calib_obs
o73816 0.38 0.05 calib_obs
o73817 0.4 0.05 calib_obs
o73818 0.39 0.05 calib_obs
o73819 0.39 0.05 calib_obs
o73820 0.39 0.05 calib_obs
o73821 0.39 0.05 calib_obs
o73822 0.37 0.05 calib_obs
o73823 0.38 0.05 calib_obs
o73824 0.39 0.05 calib_obs
o73825 0.38 0.05 calib_obs
o73826 0.36 0.05 calib_obs
o73827 0.3 0.05 calib_obs
o73828 0.28 0.05 calib_obs
o73829 0.27 0.05 calib_obs
o73830 0.27 0.05 calib_obs
o73831 0.26 0.05 calib_obs
o73832 0.24 0.05 calib_obs