pcf
* control data
restart estimation
146 3653 2 0 3
1 1 double point 1 0 0
10.0 5.0 0.5 0.005 20
5.0 5.0 0.005 0
0.01
50 0.01 8 8 0.01 8
1 1 1
* parameter groups
paramGroup1 relative 0.01 0.001 switch 2.0 parabolic
paramGroup2 absolute 0.05 0.001 switch 2.0 parabolic
* parameter data
ttpi none relative 1.0 0.0 2.0 paramGroup1 1.0000 0.0000 1
lp none relative 0.9 0.8 1.0 paramGroup1 1.0000 0.0000 1
cevpam fixed relative 0.5 0.5 0.5 paramGroup1 1.0000 0.0000 1
cevpph fixed relative 45 45 45 paramGroup1 1.0000 0.0000 1
rrcs3 fixed relative 0.0002 0.0002 0.0002 paramGroup1 1.0000 0.0000 1
damp none relative 0.255 0.01 0.95 paramGroup1 1.0000 0.0000 1
rivvel none relative 0.75 0.3 1 paramGroup1 1.0000 0.0000 1
tcalt fixed relative 0.6 0.6 0.6 paramGroup1 1.0000 0.0000 1
qmean fixed relative 25 25 25 paramGroup1 1.0000 0.0000 1
epotdist fixed relative 3 3 3 paramGroup1 1.0000 0.0000 1
gldepi none relative 3.0 1.0 10.0 paramGroup1 1.0000 0.0000 1
gratp none relative 2.25 2 2.5 paramGroup1 1.0000 0.0000 1
gratk none relative 1.0 0.05 2.0 paramGroup1 1.0000 0.0000 1
sdnsnew fixed relative 0.145 0.1 0.19 paramGroup1 1.0000 0.0000 1
snowdensdt fixed relative 0.0014 0.0014 0.0014 paramGroup1 1.0000 0.0000 1
ttmp_10 fixed relative 1.0 0.0 2.0 paramGroup1 1.0000 0.0000 1
ttmp_11 none relative 1.0 0.0 2.0 paramGroup1 1.0000 0.0000 1
ttmp_12 fixed relative 1.0 0.0 2.0 paramGroup1 1.0000 0.0000 1
ttmp_13 none relative 1.0 0.0 2.0 paramGroup1 1.0000 0.0000 1
ttmp_14 none relative 1.0 -1.0 2.0 paramGroup2 1.0000 0.0000 1
ttmp_15 none relative 1.0 0.0 2.0 paramGroup1 1.0000 0.0000 1
ttmp_16 none relative 1.0 0.0 2.0 paramGroup1 1.0000 0.0000 1
ttmp_17 none relative 1.0 -2.0 2.0 paramGroup2 1.0000 0.0000 1
cmlt_10 fixed relative 2.6 0.2 5.0 paramGroup1 1.0000 0.0000 1
cmlt_11 none relative 2.6 0.2 8.0 paramGroup1 1.0000 0.0000 1
cmlt_12 fixed relative 2.6 0.2 5.0 paramGroup1 1.0000 0.0000 1
cmlt_13 none relative 2.6 0.2 5.0 paramGroup1 1.0000 0.0000 1
cmlt_14 none relative 2.6 0.2 5.0 paramGroup1 1.0000 0.0000 1
cmlt_15 none relative 2.6 0.2 5.0 paramGroup1 1.0000 0.0000 1
cmlt_16 none relative 2.6 0.2 5.0 paramGroup1 1.0000 0.0000 1
cmlt_17 none relative 2.6 0.2 8.0 paramGroup1 1.0000 0.0000 1
cevp_10 fixed relative 0.15 0.1 0.2 paramGroup1 1.0000 0.0000 1
cevp_11 none relative 0.15 0.1 0.2 paramGroup1 1.0000 0.0000 1
cevp_12 fixed relative 0.15 0.1 0.2 paramGroup1 1.0000 0.0000 1
cevp_13 none relative 0.15 0.1 0.2 paramGroup1 1.0000 0.0000 1
cevp_14 none relative 0.15 0.1 0.2 paramGroup1 1.0000 0.0000 1
cevp_15 none relative 0.15 0.1 0.2 paramGroup1 1.0000 0.0000 1
cevp_16 none relative 0.15 0.1 0.2 paramGroup1 1.0000 0.0000 1
cevp_17 none relative 0.15 0.1 0.2 paramGroup1 1.0000 0.0000 1
srrcs_10 fixed relative 0.15 0.1 0.2 paramGroup1 1.0000 0.0000 1
srrcs_11 none relative 0.15 0.1 0.2 paramGroup1 1.0000 0.0000 1
srrcs_12 fixed relative 0.15 0.1 0.2 paramGroup1 1.0000 0.0000 1
srrcs_13 none relative 0.15 0.1 0.2 paramGroup1 1.0000 0.0000 1
srrcs_14 none relative 0.15 0.1 0.2 paramGroup1 1.0000 0.0000 1
srrcs_15 none relative 0.15 0.1 0.2 paramGroup1 1.0000 0.0000 1
srrcs_16 none relative 0.15 0.1 0.2 paramGroup1 1.0000 0.0000 1
srrcs_17 none relative 0.15 0.1 0.2 paramGroup1 1.0000 0.0000 1
frost_10 fixed relative 2.0 2.0 2.0 paramGroup1 1.0000 0.0000 1
frost_11 fixed relative 2.0 2.0 2.0 paramGroup1 1.0000 0.0000 1
frost_12 fixed relative 2.0 2.0 2.0 paramGroup1 1.0000 0.0000 1
frost_13 fixed relative 2.0 2.0 2.0 paramGroup1 1.0000 0.0000 1
frost_14 fixed relative 2.0 2.0 2.0 paramGroup1 1.0000 0.0000 1
frost_15 fixed relative 2.0 2.0 2.0 paramGroup1 1.0000 0.0000 1
frost_16 fixed relative 2.0 2.0 2.0 paramGroup1 1.0000 0.0000 1
frost_17 fixed relative 2.0 2.0 2.0 paramGroup1 1.0000 0.0000 1
rrcs1_100 fixed relative 0.375 0.05 0.7 paramGroup1 1.0000 0.0000 1
rrcs1_101 none relative 0.375 0.05 0.7 paramGroup1 1.0000 0.0000 1
rrcs1_102 none relative 0.375 0.05 0.7 paramGroup1 1.0000 0.0000 1
rrcs1_103 none relative 0.375 0.05 0.7 paramGroup1 1.0000 0.0000 1
rrcs1_104 none relative 0.375 0.05 0.7 paramGroup1 1.0000 0.0000 1
rrcs1_105 none relative 0.375 0.05 1.0 paramGroup1 1.0000 0.0000 1
rrcs1_106 none relative 0.375 0.05 0.7 paramGroup1 1.0000 0.0000 1
rrcs2_100 fixed relative 0.0255 0.001 0.05 paramGroup1 1.0000 0.0000 1
rrcs2_101 none relative 0.0255 0.001 0.05 paramGroup1 1.0000 0.0000 1
rrcs2_102 none relative 0.0255 0.001 0.05 paramGroup1 1.0000 0.0000 1
rrcs2_103 none relative 0.0255 0.001 0.05 paramGroup1 1.0000 0.0000 1
rrcs2_104 none relative 0.0255 0.001 0.05 paramGroup1 1.0000 0.0000 1
rrcs2_105 none relative 0.0255 0.001 0.05 paramGroup1 1.0000 0.0000 1
rrcs2_106 none relative 0.0255 0.001 0.05 paramGroup1 1.0000 0.0000 1
trrcs_100 fixed relative 0.2 0.1 0.3 paramGroup1 1.0000 0.0000 1
trrcs_101 fixed relative 0.2 0.1 0.3 paramGroup1 1.0000 0.0000 1
trrcs_102 fixed relative 0.2 0.1 0.3 paramGroup1 1.0000 0.0000 1
trrcs_103 fixed relative 0.2 0.1 0.3 paramGroup1 1.0000 0.0000 1
trrcs_104 fixed relative 0.2 0.1 0.3 paramGroup1 1.0000 0.0000 1
trrcs_105 fixed relative 0.2 0.1 0.3 paramGroup1 1.0000 0.0000 1
trrcs_106 fixed relative 0.2 0.1 0.3 paramGroup1 1.0000 0.0000 1
mperc1_100 fixed relative 65 30 100 paramGroup1 1.0000 0.0000 1
mperc1_101 fixed relative 65 30 100 paramGroup1 1.0000 0.0000 1
mperc1_102 fixed relative 65 30 100 paramGroup1 1.0000 0.0000 1
mperc1_103 fixed relative 65 30 100 paramGroup1 1.0000 0.0000 1
mperc1_104 fixed relative 65 30 100 paramGroup1 1.0000 0.0000 1
mperc1_105 fixed relative 65 30 100 paramGroup1 1.0000 0.0000 1
mperc1_106 fixed relative 65 30 100 paramGroup1 1.0000 0.0000 1
mperc2_100 fixed relative 65 30 100 paramGroup1 1.0000 0.0000 1
mperc2_101 fixed relative 65 30 100 paramGroup1 1.0000 0.0000 1
mperc2_102 fixed relative 65 30 100 paramGroup1 1.0000 0.0000 1
mperc2_103 fixed relative 65 30 100 paramGroup1 1.0000 0.0000 1
mperc2_104 fixed relative 65 30 100 paramGroup1 1.0000 0.0000 1
mperc2_105 fixed relative 65 30 100 paramGroup1 1.0000 0.0000 1
mperc2_106 fixed relative 65 30 100 paramGroup1 1.0000 0.0000 1
sfrost_100 fixed relative 1.0 1.0 1.0 paramGroup1 1.0000 0.0000 1
sfrost_101 fixed relative 1.0 1.0 1.0 paramGroup1 1.0000 0.0000 1
sfrost_102 fixed relative 1.0 1.0 1.0 paramGroup1 1.0000 0.0000 1
sfrost_103 fixed relative 1.0 1.0 1.0 paramGroup1 1.0000 0.0000 1
sfrost_104 fixed relative 1.0 1.0 1.0 paramGroup1 1.0000 0.0000 1
sfrost_105 fixed relative 1.0 1.0 1.0 paramGroup1 1.0000 0.0000 1
sfrost_106 fixed relative 1.0 1.0 1.0 paramGroup1 1.0000 0.0000 1
macrate_100 fixed relative 0.2 0.1 0.3 paramGroup1 1.0000 0.0000 1
macrate_101 none relative 0.2 0.1 0.3 paramGroup1 1.0000 0.0000 1
macrate_102 none relative 0.2 0.1 0.3 paramGroup1 1.0000 0.0000 1
macrate_103 none relative 0.2 0.1 0.3 paramGroup1 1.0000 0.0000 1
macrate_104 none relative 0.2 0.1 0.3 paramGroup1 1.0000 0.0000 1
macrate_105 none relative 0.2 0.1 0.3 paramGroup1 1.0000 0.0000 1
macrate_106 none relative 0.2 0.1 0.3 paramGroup1 1.0000 0.0000 1
mactrinf_100 fixed relative 30 10 50 paramGroup1 1.0000 0.0000 1
mactrinf_101 none relative 30 10 50 paramGroup1 1.0000 0.0000 1
mactrinf_102 none relative 30 10 50 paramGroup1 1.0000 0.0000 1
mactrinf_103 none relative 30 10 50 paramGroup1 1.0000 0.0000 1
mactrinf_104 none relative 30 10 50 paramGroup1 1.0000 0.0000 1
mactrinf_105 none relative 30 10 50 paramGroup1 1.0000 0.0000 1
mactrinf_106 none relative 30 10 50 paramGroup1 1.0000 0.0000 1
mactrsm_100 fixed relative 0.675 0.5 0.85 paramGroup1 1.0000 0.0000 1
mactrsm_101 fixed relative 0.675 0.5 0.85 paramGroup1 1.0000 0.0000 1
mactrsm_102 fixed relative 0.675 0.5 0.85 paramGroup1 1.0000 0.0000 1
mactrsm_103 fixed relative 0.675 0.5 0.85 paramGroup1 1.0000 0.0000 1
mactrsm_104 fixed relative 0.675 0.5 0.85 paramGroup1 1.0000 0.0000 1
mactrsm_105 fixed relative 0.675 0.5 0.85 paramGroup1 1.0000 0.0000 1
mactrsm_106 fixed relative 0.675 0.5 0.85 paramGroup1 1.0000 0.0000 1
srrate_100 fixed relative 0.15 0.1 0.2 paramGroup1 1.0000 0.0000 1
srrate_101 none relative 0.15 0.1 0.2 paramGroup1 1.0000 0.0000 1
srrate_102 none relative 0.15 0.1 0.2 paramGroup1 1.0000 0.0000 1
srrate_103 none relative 0.15 0.1 0.2 paramGroup1 1.0000 0.0000 1
srrate_104 none relative 0.15 0.1 0.2 paramGroup1 1.0000 0.0000 1
srrate_105 none relative 0.15 0.1 0.2 paramGroup1 1.0000 0.0000 1
srrate_106 none relative 0.15 0.1 0.2 paramGroup1 1.0000 0.0000 1
wcwp_100 fixed relative 0.07 0.04 0.1 paramGroup1 1.0000 0.0000 1
wcwp_101 none relative 0.07 0.04 0.1 paramGroup1 1.0000 0.0000 1
wcwp_102 none relative 0.07 0.04 0.1 paramGroup1 1.0000 0.0000 1
wcwp_103 none relative 0.07 0.04 0.1 paramGroup1 1.0000 0.0000 1
wcwp_104 none relative 0.07 0.04 0.1 paramGroup1 1.0000 0.0000 1
wcwp_105 none relative 0.07 0.04 0.1 paramGroup1 1.0000 0.0000 1
wcwp_106 none relative 0.07 0.04 0.1 paramGroup1 1.0000 0.0000 1
wcfc_100 fixed relative 0.25 0.1 0.4 paramGroup1 1.0000 0.0000 1
wcfc_101 none relative 0.25 0.1 0.4 paramGroup1 1.0000 0.0000 1
wcfc_102 none relative 0.25 0.1 0.5 paramGroup1 1.0000 0.0000 1
wcfc_103 none relative 0.25 0.1 0.4 paramGroup1 1.0000 0.0000 1
wcfc_104 none relative 0.25 0.1 0.4 paramGroup1 1.0000 0.0000 1
wcfc_105 none relative 0.25 0.1 0.4 paramGroup1 1.0000 0.0000 1
wcfc_106 none relative 0.25 0.1 0.4 paramGroup1 1.0000 0.0000 1
wcep_100 fixed relative 0.055 0.01 0.1 paramGroup1 1.0000 0.0000 1
wcep_101 none relative 0.055 0.01 0.1 paramGroup1 1.0000 0.0000 1
wcep_102 none relative 0.055 0.01 0.1 paramGroup1 1.0000 0.0000 1
wcep_103 none relative 0.055 0.01 0.1 paramGroup1 1.0000 0.0000 1
wcep_104 none relative 0.055 0.01 0.35 paramGroup1 1.0000 0.0000 1
wcep_105 none relative 0.055 0.01 0.35 paramGroup1 1.0000 0.0000 1
wcep_106 none relative 0.055 0.01 0.1 paramGroup1 1.0000 0.0000 1
* observation groups
warmup_obs
calib_obs
valid_obs
* observation data
o98632 0.0 0.0 warmup_obs
o98633 0.0 0.0 warmup_obs
o98634 0.0 0.0 warmup_obs
o98635 0.0 0.0 warmup_obs
o98636 0.0 0.0 warmup_obs
o98637 0.0 0.0 warmup_obs
o98638 0.0 0.0 warmup_obs
o98639 0.0 0.0 warmup_obs
o98640 0.0 0.0 warmup_obs
o98641 0.0 0.0 warmup_obs
o98642 0.0 0.0 warmup_obs
o98643 0.0 0.0 warmup_obs
o98644 0.0 0.0 warmup_obs
o98645 0.0 0.0 warmup_obs
o98646 0.0 0.0 warmup_obs
o98647 0.0 0.0 warmup_obs
o98648 0.0 0.0 warmup_obs
o98649 0.0 0.0 warmup_obs
o98650 0.0 0.0 warmup_obs
o98651 0.0 0.0 warmup_obs
o98652 0.0 0.0 warmup_obs
o98653 0.0 0.0 warmup_obs
o98654 0.0 0.0 warmup_obs
o98655 0.0 0.0 warmup_obs
o98656 0.0 0.0 warmup_obs
o98657 0.0 0.0 warmup_obs
o98658 0.0 0.0 warmup_obs
o98659 0.0 0.0 warmup_obs
o98660 0.0 0.0 warmup_obs
o98661 0.0 0.0 warmup_obs
o98662 0.0 0.0 warmup_obs
o98663 0.0 0.0 warmup_obs
o98664 0.0 0.0 warmup_obs
o98665 0.0 0.0 warmup_obs
o98666 0.0 0.0 warmup_obs
o98667 0.0 0.0 warmup_obs
o98668 0.0 0.0 warmup_obs
o98669 0.0 0.0 warmup_obs
o98670 0.0 0.0 warmup_obs
o98671 0.0 0.0 warmup_obs
o98672 0.0 0.0 warmup_obs
o98673 0.0 0.0 warmup_obs
o98674 0.0 0.0 warmup_obs
o98675 0.0 0.0 warmup_obs
o98676 0.0 0.0 warmup_obs
o98677 0.0 0.0 warmup_obs
o98678 0.0 0.0 warmup_obs
o98679 0.0 0.0 warmup_obs
o98680 0.0 0.0 warmup_obs
o98681 0.0 0.0 warmup_obs
o98682 0.0 0.0 warmup_obs
o98683 0.0 0.0 warmup_obs
o98684 0.0 0.0 warmup_obs
o98685 0.0 0.0 warmup_obs
o98686 0.0 0.0 warmup_obs
o98687 0.0 0.0 warmup_obs
o98688 0.0 0.0 warmup_obs
o98689 0.0 0.0 warmup_obs
o98690 0.0 0.0 warmup_obs
o98691 0.0 0.0 warmup_obs
o98692 0.0 0.0 warmup_obs
o98693 0.0 0.0 warmup_obs
o98694 0.0 0.0 warmup_obs
o98695 0.0 0.0 warmup_obs
o98696 0.0 0.0 warmup_obs
o98697 0.0 0.0 warmup_obs
o98698 0.0 0.0 warmup_obs
o98699 0.0 0.0 warmup_obs
o98700 0.0 0.0 warmup_obs
o98701 0.0 0.0 warmup_obs
o98702 0.0 0.0 warmup_obs
o98703 0.0 0.0 warmup_obs
o98704 0.0 0.0 warmup_obs
o98705 0.0 0.0 warmup_obs
o98706 0.0 0.0 warmup_obs
o98707 0.0 0.0 warmup_obs
o98708 0.0 0.0 warmup_obs
o98709 0.0 0.0 warmup_obs
o98710 0.0 0.0 warmup_obs
o98711 0.0 0.0 warmup_obs
o98712 0.0 0.0 warmup_obs
o98713 0.0 0.0 warmup_obs
o98714 0.0 0.0 warmup_obs
o98715 0.0 0.0 warmup_obs
o98716 0.0 0.0 warmup_obs
o98717 0.0 0.0 warmup_obs
o98718 0.0 0.0 warmup_obs
o98719 0.0 0.0 warmup_obs
o98720 0.0 0.0 warmup_obs
o98721 0.0 0.0 warmup_obs
o98722 0.0 0.0 warmup_obs
o98723 0.0 0.0 warmup_obs
o98724 0.0 0.0 warmup_obs
o98725 0.0 0.0 warmup_obs
o98726 0.0 0.0 warmup_obs
o98727 0.0 0.0 warmup_obs
o98728 0.0 0.0 warmup_obs
o98729 0.0 0.0 warmup_obs
o98730 0.0 0.0 warmup_obs
o98731 0.0 0.0 warmup_obs
o98732 0.0 0.0 warmup_obs
o98733 0.0 0.0 warmup_obs
o98734 0.0 0.0 warmup_obs
o98735 0.0 0.0 warmup_obs
o98736 0.0 0.0 warmup_obs
o98737 0.0 0.0 warmup_obs
o98738 0.0 0.0 warmup_obs
o98739 0.0 0.0 warmup_obs
o98740 0.0 0.0 warmup_obs
o98741 0.0 0.0 warmup_obs
o98742 0.0 0.0 warmup_obs
o98743 0.0 0.0 warmup_obs
o98744 0.0 0.0 warmup_obs
o98745 0.0 0.0 warmup_obs
o98746 0.0 0.0 warmup_obs
o98747 0.0 0.0 warmup_obs
o98748 0.0 0.0 warmup_obs
o98749 0.0 0.0 warmup_obs
o98750 0.0 0.0 warmup_obs
o98751 0.0 0.0 warmup_obs
o98752 0.0 0.0 warmup_obs
o98753 0.0 0.0 warmup_obs
o98754 0.0 0.0 warmup_obs
o98755 0.0 0.0 warmup_obs
o98756 0.0 0.0 warmup_obs
o98757 0.0 0.0 warmup_obs
o98758 0.0 0.0 warmup_obs
o98759 0.0 0.0 warmup_obs
o98760 0.0 0.0 warmup_obs
o98761 0.0 0.0 warmup_obs
o98762 0.0 0.0 warmup_obs
o98763 0.0 0.0 warmup_obs
o98764 0.0 0.0 warmup_obs
o98765 0.0 0.0 warmup_obs
o98766 0.0 0.0 warmup_obs
o98767 0.0 0.0 warmup_obs
o98768 0.0 0.0 warmup_obs
o98769 0.0 0.0 warmup_obs
o98770 0.0 0.0 warmup_obs
o98771 0.0 0.0 warmup_obs
o98772 0.0 0.0 warmup_obs
o98773 0.0 0.0 warmup_obs
o98774 0.0 0.0 warmup_obs
o98775 0.0 0.0 warmup_obs
o98776 0.0 0.0 warmup_obs
o98777 0.0 0.0 warmup_obs
o98778 0.0 0.0 warmup_obs
o98779 0.0 0.0 warmup_obs
o98780 0.0 0.0 warmup_obs
o98781 0.0 0.0 warmup_obs
o98782 0.0 0.0 warmup_obs
o98783 0.0 0.0 warmup_obs
o98784 0.0 0.0 warmup_obs
o98785 0.0 0.0 warmup_obs
o98786 0.0 0.0 warmup_obs
o98787 0.0 0.0 warmup_obs
o98788 0.0 0.0 warmup_obs
o98789 0.0 0.0 warmup_obs
o98790 0.0 0.0 warmup_obs
o98791 0.0 0.0 warmup_obs
o98792 0.0 0.0 warmup_obs
o98793 0.0 0.0 warmup_obs
o98794 0.0 0.0 warmup_obs
o98795 0.0 0.0 warmup_obs
o98796 0.0 0.0 warmup_obs
o98797 0.0 0.0 warmup_obs
o98798 0.0 0.0 warmup_obs
o98799 0.0 0.0 warmup_obs
o98800 0.0 0.0 warmup_obs
o98801 0.0 0.0 warmup_obs
o98802 0.0 0.0 warmup_obs
o98803 0.0 0.0 warmup_obs
o98804 0.0 0.0 warmup_obs
o98805 0.0 0.0 warmup_obs
o98806 0.0 0.0 warmup_obs
o98807 0.0 0.0 warmup_obs
o98808 0.0 0.0 warmup_obs
o98809 0.0 0.0 warmup_obs
o98810 0.0 0.0 warmup_obs
o98811 0.0 0.0 warmup_obs
o98812 0.0 0.0 warmup_obs
o98813 0.0 0.0 warmup_obs
o98814 0.0 0.0 warmup_obs
o98815 0.0 0.0 warmup_obs
o98816 0.0 0.0 warmup_obs
o98817 0.0 0.0 warmup_obs
o98818 0.0 0.0 warmup_obs
o98819 0.0 0.0 warmup_obs
o98820 0.0 0.0 warmup_obs
o98821 0.0 0.0 warmup_obs
o98822 0.0 0.0 warmup_obs
o98823 0.0 0.0 warmup_obs
o98824 0.0 0.0 warmup_obs
o98825 0.0 0.0 warmup_obs
o98826 0.0 0.0 warmup_obs
o98827 0.0 0.0 warmup_obs
o98828 0.0 0.0 warmup_obs
o98829 0.0 0.0 warmup_obs
o98830 0.0 0.0 warmup_obs
o98831 0.0 0.0 warmup_obs
o98832 0.0 0.0 warmup_obs
o98833 0.0 0.0 warmup_obs
o98834 0.0 0.0 warmup_obs
o98835 0.0 0.0 warmup_obs
o98836 0.0 0.0 warmup_obs
o98837 0.0 0.0 warmup_obs
o98838 0.0 0.0 warmup_obs
o98839 0.0 0.0 warmup_obs
o98840 0.0 0.0 warmup_obs
o98841 0.0 0.0 warmup_obs
o98842 0.0 0.0 warmup_obs
o98843 0.0 0.0 warmup_obs
o98844 0.0 0.0 warmup_obs
o98845 0.0 0.0 warmup_obs
o98846 0.0 0.0 warmup_obs
o98847 0.0 0.0 warmup_obs
o98848 0.0 0.0 warmup_obs
o98849 0.0 0.0 warmup_obs
o98850 0.0 0.0 warmup_obs
o98851 0.0 0.0 warmup_obs
o98852 0.0 0.0 warmup_obs
o98853 0.0 0.0 warmup_obs
o98854 0.0 0.0 warmup_obs
o98855 0.0 0.0 warmup_obs
o98856 0.0 0.0 warmup_obs
o98857 0.0 0.0 warmup_obs
o98858 0.0 0.0 warmup_obs
o98859 0.0 0.0 warmup_obs
o98860 0.0 0.0 warmup_obs
o98861 0.0 0.0 warmup_obs
o98862 0.0 0.0 warmup_obs
o98863 0.0 0.0 warmup_obs
o98864 0.0 0.0 warmup_obs
o98865 0.0 0.0 warmup_obs
o98866 0.0 0.0 warmup_obs
o98867 0.0 0.0 warmup_obs
o98868 0.0 0.0 warmup_obs
o98869 0.0 0.0 warmup_obs
o98870 0.0 0.0 warmup_obs
o98871 0.0 0.0 warmup_obs
o98872 0.0 0.0 warmup_obs
o98873 0.0 0.0 warmup_obs
o98874 0.0 0.0 warmup_obs
o98875 0.0 0.0 warmup_obs
o98876 0.0 0.0 warmup_obs
o98877 0.0 0.0 warmup_obs
o98878 0.0 0.0 warmup_obs
o98879 0.0 0.0 warmup_obs
o98880 0.0 0.0 warmup_obs
o98881 0.0 0.0 warmup_obs
o98882 0.0 0.0 warmup_obs
o98883 0.0 0.0 warmup_obs
o98884 0.0 0.0 warmup_obs
o98885 0.0 0.0 warmup_obs
o98886 0.0 0.0 warmup_obs
o98887 0.0 0.0 warmup_obs
o98888 0.0 0.0 warmup_obs
o98889 0.0 0.0 warmup_obs
o98890 0.0 0.0 warmup_obs
o98891 0.0 0.0 warmup_obs
o98892 0.0 0.0 warmup_obs
o98893 0.0 0.0 warmup_obs
o98894 0.0 0.0 warmup_obs
o98895 0.0 0.0 warmup_obs
o98896 0.0 0.0 warmup_obs
o98897 0.0 0.0 warmup_obs
o98898 0.0 0.0 warmup_obs
o98899 0.0 0.0 warmup_obs
o98900 0.0 0.0 warmup_obs
o98901 0.0 0.0 warmup_obs
o98902 0.0 0.0 warmup_obs
o98903 0.0 0.0 warmup_obs
o98904 0.0 0.0 warmup_obs
o98905 0.0 0.0 warmup_obs
o98906 0.0 0.0 warmup_obs
o98907 0.0 0.0 warmup_obs
o98908 0.0 0.0 warmup_obs
o98909 0.0 0.0 warmup_obs
o98910 0.0 0.0 warmup_obs
o98911 0.0 0.0 warmup_obs
o98912 0.0 0.0 warmup_obs
o98913 0.0 0.0 warmup_obs
o98914 0.0 0.0 warmup_obs
o98915 0.0 0.0 warmup_obs
o98916 0.0 0.0 warmup_obs
o98917 0.0 0.0 warmup_obs
o98918 0.0 0.0 warmup_obs
o98919 0.0 0.0 warmup_obs
o98920 0.0 0.0 warmup_obs
o98921 0.0 0.0 warmup_obs
o98922 0.0 0.0 warmup_obs
o98923 0.0 0.0 warmup_obs
o98924 0.0 0.0 warmup_obs
o98925 0.0 0.0 warmup_obs
o98926 0.0 0.0 warmup_obs
o98927 0.0 0.0 warmup_obs
o98928 0.0 0.0 warmup_obs
o98929 0.0 0.0 warmup_obs
o98930 0.0 0.0 warmup_obs
o98931 0.0 0.0 warmup_obs
o98932 0.0 0.0 warmup_obs
o98933 0.0 0.0 warmup_obs
o98934 0.0 0.0 warmup_obs
o98935 0.0 0.0 warmup_obs
o98936 0.0 0.0 warmup_obs
o98937 0.0 0.0 warmup_obs
o98938 0.0 0.0 warmup_obs
o98939 0.0 0.0 warmup_obs
o98940 0.0 0.0 warmup_obs
o98941 0.0 0.0 warmup_obs
o98942 0.0 0.0 warmup_obs
o98943 0.0 0.0 warmup_obs
o98944 0.0 0.0 warmup_obs
o98945 0.0 0.0 warmup_obs
o98946 0.0 0.0 warmup_obs
o98947 0.0 0.0 warmup_obs
o98948 0.0 0.0 warmup_obs
o98949 0.0 0.0 warmup_obs
o98950 0.0 0.0 warmup_obs
o98951 0.0 0.0 warmup_obs
o98952 0.0 0.0 warmup_obs
o98953 0.0 0.0 warmup_obs
o98954 0.0 0.0 warmup_obs
o98955 0.0 0.0 warmup_obs
o98956 0.0 0.0 warmup_obs
o98957 0.0 0.0 warmup_obs
o98958 0.0 0.0 warmup_obs
o98959 0.0 0.0 warmup_obs
o98960 0.0 0.0 warmup_obs
o98961 0.0 0.0 warmup_obs
o98962 0.0 0.0 warmup_obs
o98963 0.0 0.0 warmup_obs
o98964 0.0 0.0 warmup_obs
o98965 0.0 0.0 warmup_obs
o98966 0.0 0.0 warmup_obs
o98967 0.0 0.0 warmup_obs
o98968 0.0 0.0 warmup_obs
o98969 0.0 0.0 warmup_obs
o98970 0.0 0.0 warmup_obs
o98971 0.0 0.0 warmup_obs
o98972 0.0 0.0 warmup_obs
o98973 0.0 0.0 warmup_obs
o98974 0.0 0.0 warmup_obs
o98975 0.0 0.0 warmup_obs
o98976 0.0 0.0 warmup_obs
o98977 0.0 0.0 warmup_obs
o98978 0.0 0.0 warmup_obs
o98979 0.0 0.0 warmup_obs
o98980 0.0 0.0 warmup_obs
o98981 0.0 0.0 warmup_obs
o98982 0.0 0.0 warmup_obs
o98983 0.0 0.0 warmup_obs
o98984 0.0 0.0 warmup_obs
o98985 0.0 0.0 warmup_obs
o98986 0.0 0.0 warmup_obs
o98987 0.0 0.0 warmup_obs
o98988 0.0 0.0 warmup_obs
o98989 0.0 0.0 warmup_obs
o98990 0.0 0.0 warmup_obs
o98991 0.0 0.0 warmup_obs
o98992 0.0 0.0 warmup_obs
o98993 0.0 0.0 warmup_obs
o98994 0.0 0.0 warmup_obs
o98995 0.0 0.0 warmup_obs
o98996 0.0 0.0 warmup_obs
o98997 0.0 0.0 warmup_obs
o98998 1.1 0.35375 calib_obs
o98999 1.0 0.35375 calib_obs
o99000 0.8 0.35375 calib_obs
o99001 0.6 0.35375 calib_obs
o99002 0.4 0.35375 calib_obs
o99003 0.2 0.35375 calib_obs
o99004 0.2 0.35375 calib_obs
o99005 0.2 0.35375 calib_obs
o99006 0.2 0.35375 calib_obs
o99007 0.2 0.35375 calib_obs
o99008 0.2 0.35375 calib_obs
o99009 0.2 0.35375 calib_obs
o99010 0.2 0.35375 calib_obs
o99011 0.2 0.35375 calib_obs
o99012 0.2 0.35375 calib_obs
o99013 0.2 0.35375 calib_obs
o99014 0.2 0.35375 calib_obs
o99015 0.2 0.35375 calib_obs
o99016 0.2 0.35375 calib_obs
o99017 0.2 0.35375 calib_obs
o99018 0.2 0.35375 calib_obs
o99019 0.2 0.35375 calib_obs
o99020 0.2 0.35375 calib_obs
o99021 0.2 0.35375 calib_obs
o99022 0.1 0.35375 calib_obs
o99023 0.2 0.35375 calib_obs
o99024 0.3 0.35375 calib_obs
o99025 0.3 0.35375 calib_obs
o99026 0.2 0.35375 calib_obs
o99027 0.2 0.35375 calib_obs
o99028 0.2 0.35375 calib_obs
o99029 0.2 0.35375 calib_obs
o99030 0.2 0.35375 calib_obs
o99031 0.2 0.35375 calib_obs
o99032 0.2 0.35375 calib_obs
o99033 0.2 0.35375 calib_obs
o99034 0.2 0.35375 calib_obs
o99035 0.2 0.35375 calib_obs
o99036 0.1 0.35375 calib_obs
o99037 0.1 0.35375 calib_obs
o99038 0.1 0.35375 calib_obs
o99039 0.1 0.35375 calib_obs
o99040 0.1 0.35375 calib_obs
o99041 0.1 0.35375 calib_obs
o99042 0.1 0.35375 calib_obs
o99043 0.1 0.35375 calib_obs
o99044 0.1 0.35375 calib_obs
o99045 0.1 0.35375 calib_obs
o99046 0.1 0.35375 calib_obs
o99047 0.2 0.35375 calib_obs
o99048 1.0 0.35375 calib_obs
o99049 0.6 0.35375 calib_obs
o99050 0.3 0.35375 calib_obs
o99051 0.2 0.35375 calib_obs
o99052 0.1 0.35375 calib_obs
o99053 0.1 0.35375 calib_obs
o99054 0.1 0.35375 calib_obs
o99055 0.1 0.35375 calib_obs
o99056 0.1 0.35375 calib_obs
o99057 3.8 0.35375 calib_obs
o99058 11.0 0.35375 calib_obs
o99059 3.6 0.35375 calib_obs
o99060 1.1 0.35375 calib_obs
o99061 0.6 0.35375 calib_obs
o99062 0.4 0.35375 calib_obs
o99063 0.2 0.35375 calib_obs
o99064 0.2 0.35375 calib_obs
o99065 0.2 0.35375 calib_obs
o99066 0.2 0.35375 calib_obs
o99067 0.5 0.35375 calib_obs
o99068 0.9 0.35375 calib_obs
o99069 2.0 0.35375 calib_obs
o99070 3.3 0.35375 calib_obs
o99071 13.4 0.35375 calib_obs
o99072 11.8 0.35375 calib_obs
o99073 9.9 0.35375 calib_obs
o99074 11.8 0.35375 calib_obs
o99075 4.0 0.35375 calib_obs
o99076 2.2 0.35375 calib_obs
o99077 1.8 0.35375 calib_obs
o99078 3.2 0.35375 calib_obs
o99079 3.6 0.35375 calib_obs
o99080 2.2 0.35375 calib_obs
o99081 1.6 0.35375 calib_obs
o99082 1.7 0.35375 calib_obs
o99083 2.7 0.35375 calib_obs
o99084 2.8 0.35375 calib_obs
o99085 1.7 0.35375 calib_obs
o99086 1.2 0.35375 calib_obs
o99087 1.1 0.35375 calib_obs
o99088 1.1 0.35375 calib_obs
o99089 3.0 0.35375 calib_obs
o99090 4.2 0.35375 calib_obs
o99091 3.4 0.35375 calib_obs
o99092 3.1 0.35375 calib_obs
o99093 3.1 0.35375 calib_obs
o99094 2.6 0.35375 calib_obs
o99095 2.4 0.35375 calib_obs
o99096 2.1 0.35375 calib_obs
o99097 2.0 0.35375 calib_obs
o99098 2.5 0.35375 calib_obs
o99099 2.4 0.35375 calib_obs
o99100 2.0 0.35375 calib_obs
o99101 2.0 0.35375 calib_obs
o99102 1.7 0.35375 calib_obs
o99103 1.4 0.35375 calib_obs
o99104 1.2 0.35375 calib_obs
o99105 1.0 0.35375 calib_obs
o99106 1.0 0.35375 calib_obs
o99107 0.9 0.35375 calib_obs
o99108 1.1 0.35375 calib_obs
o99109 1.4 0.35375 calib_obs
o99110 1.9 0.35375 calib_obs
o99111 1.74 0.35375 calib_obs
o99112 1.63 0.35375 calib_obs
o99113 2.89 0.35375 calib_obs
o99114 2.52 0.35375 calib_obs
o99115 1.91 0.35375 calib_obs
o99116 1.49 0.35375 calib_obs
o99117 1.51 0.35375 calib_obs
o99118 2.92 0.35375 calib_obs
o99119 2.95 0.35375 calib_obs
o99120 2.23 0.35375 calib_obs
o99121 1.7 0.35375 calib_obs
o99122 1.4 0.35375 calib_obs
o99123 1.26 0.35375 calib_obs
o99124 1.16 0.35375 calib_obs
o99125 1.06 0.35375 calib_obs
o99126 1.0 0.35375 calib_obs
o99127 0.97 0.35375 calib_obs
o99128 0.91 0.35375 calib_obs
o99129 0.85 0.35375 calib_obs
o99130 0.77 0.35375 calib_obs
o99131 0.7 0.35375 calib_obs
o99132 0.7 0.35375 calib_obs
o99133 0.7 0.35375 calib_obs
o99134 0.64 0.35375 calib_obs
o99135 0.6 0.35375 calib_obs
o99136 0.61 0.35375 calib_obs
o99137 0.6 0.35375 calib_obs
o99138 0.55 0.35375 calib_obs
o99139 0.5 0.35375 calib_obs
o99140 0.44 0.35375 calib_obs
o99141 0.4 0.35375 calib_obs
o99142 0.36 0.35375 calib_obs
o99143 0.3 0.35375 calib_obs
o99144 0.3 0.35375 calib_obs
o99145 0.29 0.35375 calib_obs
o99146 0.3 0.35375 calib_obs
o99147 0.25 0.35375 calib_obs
o99148 0.3 0.35375 calib_obs
o99149 0.37 0.35375 calib_obs
o99150 0.38 0.35375 calib_obs
o99151 0.3 0.35375 calib_obs
o99152 0.26 0.35375 calib_obs
o99153 0.2 0.35375 calib_obs
o99154 0.2 0.35375 calib_obs
o99155 0.2 0.35375 calib_obs
o99156 0.39 0.35375 calib_obs
o99157 1.08 0.35375 calib_obs
o99158 1.28 0.35375 calib_obs
o99159 0.96 0.35375 calib_obs
o99160 0.81 0.35375 calib_obs
o99161 3.56 0.35375 calib_obs
o99162 8.83 0.35375 calib_obs
o99163 3.74 0.35375 calib_obs
o99164 1.89 0.35375 calib_obs
o99165 1.18 0.35375 calib_obs
o99166 0.88 0.35375 calib_obs
o99167 0.68 0.35375 calib_obs
o99168 0.59 0.35375 calib_obs
o99169 0.54 0.35375 calib_obs
o99170 0.51 0.35375 calib_obs
o99171 0.43 0.35375 calib_obs
o99172 0.31 0.35375 calib_obs
o99173 0.3 0.35375 calib_obs
o99174 0.31 0.35375 calib_obs
o99175 0.45 0.35375 calib_obs
o99176 0.56 0.35375 calib_obs
o99177 0.42 0.35375 calib_obs
o99178 0.29 0.35375 calib_obs
o99179 0.2 0.35375 calib_obs
o99180 0.2 0.35375 calib_obs
o99181 0.12 0.35375 calib_obs
o99182 0.1 0.35375 calib_obs
o99183 0.17 0.35375 calib_obs
o99184 0.23 0.35375 calib_obs
o99185 0.23 0.35375 calib_obs
o99186 0.2 0.35375 calib_obs
o99187 0.15 0.35375 calib_obs
o99188 0.1 0.35375 calib_obs
o99189 0.1 0.35375 calib_obs
o99190 0.1 0.35375 calib_obs
o99191 0.1 0.35375 calib_obs
o99192 0.1 0.35375 calib_obs
o99193 0.1 0.35375 calib_obs
o99194 0.1 0.35375 calib_obs
o99195 0.1 0.35375 calib_obs
o99196 0.1 0.35375 calib_obs
o99197 0.1 0.35375 calib_obs
o99198 0.1 0.35375 calib_obs
o99199 0.1 0.35375 calib_obs
o99200 0.1 0.35375 calib_obs
o99201 0.1 0.35375 calib_obs
o99202 0.1 0.35375 calib_obs
o99203 0.1 0.35375 calib_obs
o99204 0.1 0.35375 calib_obs
o99205 0.1 0.35375 calib_obs
o99206 0.1 0.35375 calib_obs
o99207 0.1 0.35375 calib_obs
o99208 0.1 0.35375 calib_obs
o99209 0.1 0.35375 calib_obs
o99210 0.1 0.35375 calib_obs
o99211 0.1 0.35375 calib_obs
o99212 0.1 0.35375 calib_obs
o99213 0.1 0.35375 calib_obs
o99214 0.15 0.35375 calib_obs
o99215 0.26 0.35375 calib_obs
o99216 0.91 0.35375 calib_obs
o99217 1.12 0.35375 calib_obs
o99218 0.86 0.35375 calib_obs
o99219 0.59 0.35375 calib_obs
o99220 0.35 0.35375 calib_obs
o99221 0.23 0.35375 calib_obs
o99222 0.2 0.35375 calib_obs
o99223 0.23 0.35375 calib_obs
o99224 0.34 0.35375 calib_obs
o99225 0.39 0.35375 calib_obs
o99226 0.3 0.35375 calib_obs
o99227 0.2 0.35375 calib_obs
o99228 0.2 0.35375 calib_obs
o99229 0.2 0.35375 calib_obs
o99230 0.36 0.35375 calib_obs
o99231 0.67 0.35375 calib_obs
o99232 0.46 0.35375 calib_obs
o99233 0.47 0.35375 calib_obs
o99234 0.37 0.35375 calib_obs
o99235 0.3 0.35375 calib_obs
o99236 0.21 0.35375 calib_obs
o99237 0.2 0.35375 calib_obs
o99238 0.19 0.35375 calib_obs
o99239 0.17 0.35375 calib_obs
o99240 0.27 0.35375 calib_obs
o99241 0.62 0.35375 calib_obs
o99242 0.98 0.35375 calib_obs
o99243 0.88 0.35375 calib_obs
o99244 0.63 0.35375 calib_obs
o99245 0.42 0.35375 calib_obs
o99246 0.3 0.35375 calib_obs
o99247 0.21 0.35375 calib_obs
o99248 0.2 0.35375 calib_obs
o99249 0.2 0.35375 calib_obs
o99250 0.74 0.35375 calib_obs
o99251 1.88 0.35375 calib_obs
o99252 2.06 0.35375 calib_obs
o99253 2.5 0.35375 calib_obs
o99254 2.2 0.35375 calib_obs
o99255 1.57 0.35375 calib_obs
o99256 1.34 0.35375 calib_obs
o99257 1.15 0.35375 calib_obs
o99258 1.01 0.35375 calib_obs
o99259 0.89 0.35375 calib_obs
o99260 0.78 0.35375 calib_obs
o99261 0.68 0.35375 calib_obs
o99262 0.6 0.35375 calib_obs
o99263 0.53 0.35375 calib_obs
o99264 0.5 0.35375 calib_obs
o99265 0.42 0.35375 calib_obs
o99266 0.37 0.35375 calib_obs
o99267 0.3 0.35375 calib_obs
o99268 0.3 0.35375 calib_obs
o99269 0.3 0.35375 calib_obs
o99270 0.3 0.35375 calib_obs
o99271 0.3 0.35375 calib_obs
o99272 0.28 0.35375 calib_obs
o99273 0.31 0.35375 calib_obs
o99274 0.97 0.35375 calib_obs
o99275 2.53 0.35375 calib_obs
o99276 2.16 0.35375 calib_obs
o99277 1.48 0.35375 calib_obs
o99278 1.88 0.35375 calib_obs
o99279 6.91 0.35375 calib_obs
o99280 11.62 0.35375 calib_obs
o99281 9.66 0.35375 calib_obs
o99282 5.32 0.35375 calib_obs
o99283 11.62 0.35375 calib_obs
o99284 10.28 0.35375 calib_obs
o99285 10.0 0.35375 calib_obs
o99286 8.6 0.35375 calib_obs
o99287 7.2 0.35375 calib_obs
o99288 5.6 0.35375 calib_obs
o99289 5.4 0.35375 calib_obs
o99290 3.7 0.35375 calib_obs
o99291 2.8 0.35375 calib_obs
o99292 2.2 0.35375 calib_obs
o99293 1.9 0.35375 calib_obs
o99294 1.6 0.35375 calib_obs
o99295 1.4 0.35375 calib_obs
o99296 1.3 0.35375 calib_obs
o99297 1.3 0.35375 calib_obs
o99298 1.4 0.35375 calib_obs
o99299 6.0 0.35375 calib_obs
o99300 6.2 0.35375 calib_obs
o99301 3.8 0.35375 calib_obs
o99302 2.7 0.35375 calib_obs
o99303 2.2 0.35375 calib_obs
o99304 1.8 0.35375 calib_obs
o99305 1.6 0.35375 calib_obs
o99306 1.7 0.35375 calib_obs
o99307 1.8 0.35375 calib_obs
o99308 2.1 0.35375 calib_obs
o99309 1.8 0.35375 calib_obs
o99310 1.6 0.35375 calib_obs
o99311 2.3 0.35375 calib_obs
o99312 3.1 0.35375 calib_obs
o99313 5.6 0.35375 calib_obs
o99314 4.4 0.35375 calib_obs
o99315 3.1 0.35375 calib_obs
o99316 2.4 0.35375 calib_obs
o99317 3.1 0.35375 calib_obs
o99318 5.0 0.35375 calib_obs
o99319 6.5 0.35375 calib_obs
o99320 5.6 0.35375 calib_obs
o99321 5.4 0.35375 calib_obs
o99322 4.0 0.35375 calib_obs
o99323 3.0 0.35375 calib_obs
o99324 2.4 0.35375 calib_obs
o99325 4.2 0.35375 calib_obs
o99326 5.6 0.35375 calib_obs
o99327 3.6 0.35375 calib_obs
o99328 3.2 0.35375 calib_obs
o99329 6.7 0.35375 calib_obs
o99330 9.6 0.35375 calib_obs
o99331 9.2 0.35375 calib_obs
o99332 5.8 0.35375 calib_obs
o99333 4.0 0.35375 calib_obs
o99334 4.2 0.35375 calib_obs
o99335 8.6 0.35375 calib_obs
o99336 5.2 0.35375 calib_obs
o99337 3.4 0.35375 calib_obs
o99338 2.5 0.35375 calib_obs
o99339 4.4 0.35375 calib_obs
o99340 15.7 0.35375 calib_obs
o99341 38.0 0.35375 calib_obs
o99342 23.0 0.35375 calib_obs
o99343 10.3 0.35375 calib_obs
o99344 6.2 0.35375 calib_obs
o99345 4.6 0.35375 calib_obs
o99346 3.8 0.35375 calib_obs
o99347 3.8 0.35375 calib_obs
o99348 4.6 0.35375 calib_obs
o99349 3.8 0.35375 calib_obs
o99350 3.7 0.35375 calib_obs
o99351 4.2 0.35375 calib_obs
o99352 21.61 0.35375 calib_obs
o99353 17.31 0.35375 calib_obs
o99354 7.16 0.35375 calib_obs
o99355 6.2 0.35375 calib_obs
o99356 4.32 0.35375 calib_obs
o99357 3.81 0.35375 calib_obs
o99358 4.2 0.35375 calib_obs
o99359 4.46 0.35375 calib_obs
o99360 9.15 0.35375 calib_obs