pcf
* control data
restart estimation
146 7306 2 0 3
1 2 double point 1 0 0
10.0 5.0 0.5 0.005 20
5.0 5.0 0.005 0
0.01
50 0.01 8 8 0.01 8
1 1 1
* parameter groups
paramGroup1 relative 0.01 0.001 switch 2.0 parabolic
paramGroup2 absolute 0.05 0.001 switch 2.0 parabolic
* parameter data
ttpi none relative 1.0 0.0 2.0 paramGroup1 1.0000 0.0000 1
lp none relative 0.9 0.8 1.0 paramGroup1 1.0000 0.0000 1
cevpam fixed relative 0.5 0.5 0.5 paramGroup1 1.0000 0.0000 1
cevpph fixed relative 45 45 45 paramGroup1 1.0000 0.0000 1
rrcs3 fixed relative 0.0002 0.0002 0.0002 paramGroup1 1.0000 0.0000 1
damp none relative 0.255 0.01 0.95 paramGroup1 1.0000 0.0000 1
rivvel none relative 0.75 0.3 1 paramGroup1 1.0000 0.0000 1
tcalt fixed relative 0.6 0.6 0.6 paramGroup1 1.0000 0.0000 1
qmean fixed relative 25 25 25 paramGroup1 1.0000 0.0000 1
epotdist fixed relative 3 3 3 paramGroup1 1.0000 0.0000 1
gldepi none relative 3.0 1.0 10.0 paramGroup1 1.0000 0.0000 1
gratp none relative 2.25 2 2.5 paramGroup1 1.0000 0.0000 1
gratk none relative 1.0 0.05 2.0 paramGroup1 1.0000 0.0000 1
sdnsnew fixed relative 0.145 0.1 0.19 paramGroup1 1.0000 0.0000 1
snowdensdt fixed relative 0.0014 0.0014 0.0014 paramGroup1 1.0000 0.0000 1
ttmp_10 fixed relative 1.0 0.0 2.0 paramGroup1 1.0000 0.0000 1
ttmp_11 none relative 1.0 0.0 2.0 paramGroup1 1.0000 0.0000 1
ttmp_12 fixed relative 1.0 0.0 2.0 paramGroup1 1.0000 0.0000 1
ttmp_13 none relative 1.0 0.0 2.0 paramGroup1 1.0000 0.0000 1
ttmp_14 none relative 1.0 -1.0 2.0 paramGroup2 1.0000 0.0000 1
ttmp_15 none relative 1.0 0.0 2.0 paramGroup1 1.0000 0.0000 1
ttmp_16 none relative 1.0 0.0 2.0 paramGroup1 1.0000 0.0000 1
ttmp_17 none relative 1.0 -2.0 2.0 paramGroup2 1.0000 0.0000 1
cmlt_10 fixed relative 2.6 0.2 5.0 paramGroup1 1.0000 0.0000 1
cmlt_11 none relative 2.6 0.2 8.0 paramGroup1 1.0000 0.0000 1
cmlt_12 fixed relative 2.6 0.2 5.0 paramGroup1 1.0000 0.0000 1
cmlt_13 none relative 2.6 0.2 5.0 paramGroup1 1.0000 0.0000 1
cmlt_14 none relative 2.6 0.2 5.0 paramGroup1 1.0000 0.0000 1
cmlt_15 none relative 2.6 0.2 5.0 paramGroup1 1.0000 0.0000 1
cmlt_16 none relative 2.6 0.2 5.0 paramGroup1 1.0000 0.0000 1
cmlt_17 none relative 2.6 0.2 8.0 paramGroup1 1.0000 0.0000 1
cevp_10 fixed relative 0.15 0.1 0.2 paramGroup1 1.0000 0.0000 1
cevp_11 none relative 0.15 0.1 0.2 paramGroup1 1.0000 0.0000 1
cevp_12 fixed relative 0.15 0.1 0.2 paramGroup1 1.0000 0.0000 1
cevp_13 none relative 0.15 0.1 0.2 paramGroup1 1.0000 0.0000 1
cevp_14 none relative 0.15 0.1 0.2 paramGroup1 1.0000 0.0000 1
cevp_15 none relative 0.15 0.1 0.2 paramGroup1 1.0000 0.0000 1
cevp_16 none relative 0.15 0.1 0.2 paramGroup1 1.0000 0.0000 1
cevp_17 none relative 0.15 0.1 0.2 paramGroup1 1.0000 0.0000 1
srrcs_10 fixed relative 0.15 0.1 0.2 paramGroup1 1.0000 0.0000 1
srrcs_11 none relative 0.15 0.1 0.2 paramGroup1 1.0000 0.0000 1
srrcs_12 fixed relative 0.15 0.1 0.2 paramGroup1 1.0000 0.0000 1
srrcs_13 none relative 0.15 0.1 0.2 paramGroup1 1.0000 0.0000 1
srrcs_14 none relative 0.15 0.1 0.2 paramGroup1 1.0000 0.0000 1
srrcs_15 none relative 0.15 0.1 0.2 paramGroup1 1.0000 0.0000 1
srrcs_16 none relative 0.15 0.1 0.2 paramGroup1 1.0000 0.0000 1
srrcs_17 none relative 0.15 0.1 0.2 paramGroup1 1.0000 0.0000 1
frost_10 fixed relative 2.0 2.0 2.0 paramGroup1 1.0000 0.0000 1
frost_11 fixed relative 2.0 2.0 2.0 paramGroup1 1.0000 0.0000 1
frost_12 fixed relative 2.0 2.0 2.0 paramGroup1 1.0000 0.0000 1
frost_13 fixed relative 2.0 2.0 2.0 paramGroup1 1.0000 0.0000 1
frost_14 fixed relative 2.0 2.0 2.0 paramGroup1 1.0000 0.0000 1
frost_15 fixed relative 2.0 2.0 2.0 paramGroup1 1.0000 0.0000 1
frost_16 fixed relative 2.0 2.0 2.0 paramGroup1 1.0000 0.0000 1
frost_17 fixed relative 2.0 2.0 2.0 paramGroup1 1.0000 0.0000 1
rrcs1_100 fixed relative 0.375 0.05 0.7 paramGroup1 1.0000 0.0000 1
rrcs1_101 none relative 0.375 0.05 0.7 paramGroup1 1.0000 0.0000 1
rrcs1_102 none relative 0.375 0.05 0.7 paramGroup1 1.0000 0.0000 1
rrcs1_103 none relative 0.375 0.05 0.7 paramGroup1 1.0000 0.0000 1
rrcs1_104 none relative 0.375 0.05 0.7 paramGroup1 1.0000 0.0000 1
rrcs1_105 none relative 0.375 0.05 1.0 paramGroup1 1.0000 0.0000 1
rrcs1_106 none relative 0.375 0.05 0.7 paramGroup1 1.0000 0.0000 1
rrcs2_100 fixed relative 0.0255 0.001 0.05 paramGroup1 1.0000 0.0000 1
rrcs2_101 none relative 0.0255 0.001 0.05 paramGroup1 1.0000 0.0000 1
rrcs2_102 none relative 0.0255 0.001 0.05 paramGroup1 1.0000 0.0000 1
rrcs2_103 none relative 0.0255 0.001 0.05 paramGroup1 1.0000 0.0000 1
rrcs2_104 none relative 0.0255 0.001 0.05 paramGroup1 1.0000 0.0000 1
rrcs2_105 none relative 0.0255 0.001 0.05 paramGroup1 1.0000 0.0000 1
rrcs2_106 none relative 0.0255 0.001 0.05 paramGroup1 1.0000 0.0000 1
trrcs_100 fixed relative 0.2 0.1 0.3 paramGroup1 1.0000 0.0000 1
trrcs_101 fixed relative 0.2 0.1 0.3 paramGroup1 1.0000 0.0000 1
trrcs_102 fixed relative 0.2 0.1 0.3 paramGroup1 1.0000 0.0000 1
trrcs_103 fixed relative 0.2 0.1 0.3 paramGroup1 1.0000 0.0000 1
trrcs_104 fixed relative 0.2 0.1 0.3 paramGroup1 1.0000 0.0000 1
trrcs_105 fixed relative 0.2 0.1 0.3 paramGroup1 1.0000 0.0000 1
trrcs_106 fixed relative 0.2 0.1 0.3 paramGroup1 1.0000 0.0000 1
mperc1_100 fixed relative 65 30 100 paramGroup1 1.0000 0.0000 1
mperc1_101 fixed relative 65 30 100 paramGroup1 1.0000 0.0000 1
mperc1_102 fixed relative 65 30 100 paramGroup1 1.0000 0.0000 1
mperc1_103 fixed relative 65 30 100 paramGroup1 1.0000 0.0000 1
mperc1_104 fixed relative 65 30 100 paramGroup1 1.0000 0.0000 1
mperc1_105 fixed relative 65 30 100 paramGroup1 1.0000 0.0000 1
mperc1_106 fixed relative 65 30 100 paramGroup1 1.0000 0.0000 1
mperc2_100 fixed relative 65 30 100 paramGroup1 1.0000 0.0000 1
mperc2_101 fixed relative 65 30 100 paramGroup1 1.0000 0.0000 1
mperc2_102 fixed relative 65 30 100 paramGroup1 1.0000 0.0000 1
mperc2_103 fixed relative 65 30 100 paramGroup1 1.0000 0.0000 1
mperc2_104 fixed relative 65 30 100 paramGroup1 1.0000 0.0000 1
mperc2_105 fixed relative 65 30 100 paramGroup1 1.0000 0.0000 1
mperc2_106 fixed relative 65 30 100 paramGroup1 1.0000 0.0000 1
sfrost_100 fixed relative 1.0 1.0 1.0 paramGroup1 1.0000 0.0000 1
sfrost_101 fixed relative 1.0 1.0 1.0 paramGroup1 1.0000 0.0000 1
sfrost_102 fixed relative 1.0 1.0 1.0 paramGroup1 1.0000 0.0000 1
sfrost_103 fixed relative 1.0 1.0 1.0 paramGroup1 1.0000 0.0000 1
sfrost_104 fixed relative 1.0 1.0 1.0 paramGroup1 1.0000 0.0000 1
sfrost_105 fixed relative 1.0 1.0 1.0 paramGroup1 1.0000 0.0000 1
sfrost_106 fixed relative 1.0 1.0 1.0 paramGroup1 1.0000 0.0000 1
macrate_100 fixed relative 0.2 0.1 0.3 paramGroup1 1.0000 0.0000 1
macrate_101 none relative 0.2 0.1 0.3 paramGroup1 1.0000 0.0000 1
macrate_102 none relative 0.2 0.1 0.3 paramGroup1 1.0000 0.0000 1
macrate_103 none relative 0.2 0.1 0.3 paramGroup1 1.0000 0.0000 1
macrate_104 none relative 0.2 0.1 0.3 paramGroup1 1.0000 0.0000 1
macrate_105 none relative 0.2 0.1 0.3 paramGroup1 1.0000 0.0000 1
macrate_106 none relative 0.2 0.1 0.3 paramGroup1 1.0000 0.0000 1
mactrinf_100 fixed relative 30 10 50 paramGroup1 1.0000 0.0000 1
mactrinf_101 none relative 30 10 50 paramGroup1 1.0000 0.0000 1
mactrinf_102 none relative 30 10 50 paramGroup1 1.0000 0.0000 1
mactrinf_103 none relative 30 10 50 paramGroup1 1.0000 0.0000 1
mactrinf_104 none relative 30 10 50 paramGroup1 1.0000 0.0000 1
mactrinf_105 none relative 30 10 50 paramGroup1 1.0000 0.0000 1
mactrinf_106 none relative 30 10 50 paramGroup1 1.0000 0.0000 1
mactrsm_100 fixed relative 0.675 0.5 0.85 paramGroup1 1.0000 0.0000 1
mactrsm_101 fixed relative 0.675 0.5 0.85 paramGroup1 1.0000 0.0000 1
mactrsm_102 fixed relative 0.675 0.5 0.85 paramGroup1 1.0000 0.0000 1
mactrsm_103 fixed relative 0.675 0.5 0.85 paramGroup1 1.0000 0.0000 1
mactrsm_104 fixed relative 0.675 0.5 0.85 paramGroup1 1.0000 0.0000 1
mactrsm_105 fixed relative 0.675 0.5 0.85 paramGroup1 1.0000 0.0000 1
mactrsm_106 fixed relative 0.675 0.5 0.85 paramGroup1 1.0000 0.0000 1
srrate_100 fixed relative 0.15 0.1 0.2 paramGroup1 1.0000 0.0000 1
srrate_101 none relative 0.15 0.1 0.2 paramGroup1 1.0000 0.0000 1
srrate_102 none relative 0.15 0.1 0.2 paramGroup1 1.0000 0.0000 1
srrate_103 none relative 0.15 0.1 0.2 paramGroup1 1.0000 0.0000 1
srrate_104 none relative 0.15 0.1 0.2 paramGroup1 1.0000 0.0000 1
srrate_105 none relative 0.15 0.1 0.2 paramGroup1 1.0000 0.0000 1
srrate_106 none relative 0.15 0.1 0.2 paramGroup1 1.0000 0.0000 1
wcwp_100 fixed relative 0.07 0.04 0.1 paramGroup1 1.0000 0.0000 1
wcwp_101 none relative 0.07 0.04 0.1 paramGroup1 1.0000 0.0000 1
wcwp_102 none relative 0.07 0.04 0.1 paramGroup1 1.0000 0.0000 1
wcwp_103 none relative 0.07 0.04 0.1 paramGroup1 1.0000 0.0000 1
wcwp_104 none relative 0.07 0.04 0.1 paramGroup1 1.0000 0.0000 1
wcwp_105 none relative 0.07 0.04 0.1 paramGroup1 1.0000 0.0000 1
wcwp_106 none relative 0.07 0.04 0.1 paramGroup1 1.0000 0.0000 1
wcfc_100 fixed relative 0.25 0.1 0.4 paramGroup1 1.0000 0.0000 1
wcfc_101 none relative 0.25 0.1 0.4 paramGroup1 1.0000 0.0000 1
wcfc_102 none relative 0.25 0.1 0.5 paramGroup1 1.0000 0.0000 1
wcfc_103 none relative 0.25 0.1 0.4 paramGroup1 1.0000 0.0000 1
wcfc_104 none relative 0.25 0.1 0.4 paramGroup1 1.0000 0.0000 1
wcfc_105 none relative 0.25 0.1 0.4 paramGroup1 1.0000 0.0000 1
wcfc_106 none relative 0.25 0.1 0.4 paramGroup1 1.0000 0.0000 1
wcep_100 fixed relative 0.055 0.01 0.1 paramGroup1 1.0000 0.0000 1
wcep_101 none relative 0.055 0.01 0.1 paramGroup1 1.0000 0.0000 1
wcep_102 none relative 0.055 0.01 0.1 paramGroup1 1.0000 0.0000 1
wcep_103 none relative 0.055 0.01 0.1 paramGroup1 1.0000 0.0000 1
wcep_104 none relative 0.055 0.01 0.35 paramGroup1 1.0000 0.0000 1
wcep_105 none relative 0.055 0.01 0.35 paramGroup1 1.0000 0.0000 1
wcep_106 none relative 0.055 0.01 0.1 paramGroup1 1.0000 0.0000 1
* observation groups
warmup_obs
calib_obs
valid_obs
* observation data
o65755 0.0 0.0 warmup_obs
o65756 0.0 0.0 warmup_obs
o65757 0.0 0.0 warmup_obs
o65758 0.0 0.0 warmup_obs
o65759 0.0 0.0 warmup_obs
o65760 0.0 0.0 warmup_obs
o65761 0.0 0.0 warmup_obs
o65762 0.0 0.0 warmup_obs
o65763 0.0 0.0 warmup_obs
o65764 0.0 0.0 warmup_obs
o65765 0.0 0.0 warmup_obs
o65766 0.0 0.0 warmup_obs
o65767 0.0 0.0 warmup_obs
o65768 0.0 0.0 warmup_obs
o65769 0.0 0.0 warmup_obs
o65770 0.0 0.0 warmup_obs
o65771 0.0 0.0 warmup_obs
o65772 0.0 0.0 warmup_obs
o65773 0.0 0.0 warmup_obs
o65774 0.0 0.0 warmup_obs
o65775 0.0 0.0 warmup_obs
o65776 0.0 0.0 warmup_obs
o65777 0.0 0.0 warmup_obs
o65778 0.0 0.0 warmup_obs
o65779 0.0 0.0 warmup_obs
o65780 0.0 0.0 warmup_obs
o65781 0.0 0.0 warmup_obs
o65782 0.0 0.0 warmup_obs
o65783 0.0 0.0 warmup_obs
o65784 0.0 0.0 warmup_obs
o65785 0.0 0.0 warmup_obs
o65786 0.0 0.0 warmup_obs
o65787 0.0 0.0 warmup_obs
o65788 0.0 0.0 warmup_obs
o65789 0.0 0.0 warmup_obs
o65790 0.0 0.0 warmup_obs
o65791 0.0 0.0 warmup_obs
o65792 0.0 0.0 warmup_obs
o65793 0.0 0.0 warmup_obs
o65794 0.0 0.0 warmup_obs
o65795 0.0 0.0 warmup_obs
o65796 0.0 0.0 warmup_obs
o65797 0.0 0.0 warmup_obs
o65798 0.0 0.0 warmup_obs
o65799 0.0 0.0 warmup_obs
o65800 0.0 0.0 warmup_obs
o65801 0.0 0.0 warmup_obs
o65802 0.0 0.0 warmup_obs
o65803 0.0 0.0 warmup_obs
o65804 0.0 0.0 warmup_obs
o65805 0.0 0.0 warmup_obs
o65806 0.0 0.0 warmup_obs
o65807 0.0 0.0 warmup_obs
o65808 0.0 0.0 warmup_obs
o65809 0.0 0.0 warmup_obs
o65810 0.0 0.0 warmup_obs
o65811 0.0 0.0 warmup_obs
o65812 0.0 0.0 warmup_obs
o65813 0.0 0.0 warmup_obs
o65814 0.0 0.0 warmup_obs
o65815 0.0 0.0 warmup_obs
o65816 0.0 0.0 warmup_obs
o65817 0.0 0.0 warmup_obs
o65818 0.0 0.0 warmup_obs
o65819 0.0 0.0 warmup_obs
o65820 0.0 0.0 warmup_obs
o65821 0.0 0.0 warmup_obs
o65822 0.0 0.0 warmup_obs
o65823 0.0 0.0 warmup_obs
o65824 0.0 0.0 warmup_obs
o65825 0.0 0.0 warmup_obs
o65826 0.0 0.0 warmup_obs
o65827 0.0 0.0 warmup_obs
o65828 0.0 0.0 warmup_obs
o65829 0.0 0.0 warmup_obs
o65830 0.0 0.0 warmup_obs
o65831 0.0 0.0 warmup_obs
o65832 0.0 0.0 warmup_obs
o65833 0.0 0.0 warmup_obs
o65834 0.0 0.0 warmup_obs
o65835 0.0 0.0 warmup_obs
o65836 0.0 0.0 warmup_obs
o65837 0.0 0.0 warmup_obs
o65838 0.0 0.0 warmup_obs
o65839 0.0 0.0 warmup_obs
o65840 0.0 0.0 warmup_obs
o65841 0.0 0.0 warmup_obs
o65842 0.0 0.0 warmup_obs
o65843 0.0 0.0 warmup_obs
o65844 0.0 0.0 warmup_obs
o65845 0.0 0.0 warmup_obs
o65846 0.0 0.0 warmup_obs
o65847 0.0 0.0 warmup_obs
o65848 0.0 0.0 warmup_obs
o65849 0.0 0.0 warmup_obs
o65850 0.0 0.0 warmup_obs
o65851 0.0 0.0 warmup_obs
o65852 0.0 0.0 warmup_obs
o65853 0.0 0.0 warmup_obs
o65854 0.0 0.0 warmup_obs
o65855 0.0 0.0 warmup_obs
o65856 0.0 0.0 warmup_obs
o65857 0.0 0.0 warmup_obs
o65858 0.0 0.0 warmup_obs
o65859 0.0 0.0 warmup_obs
o65860 0.0 0.0 warmup_obs
o65861 0.0 0.0 warmup_obs
o65862 0.0 0.0 warmup_obs
o65863 0.0 0.0 warmup_obs
o65864 0.0 0.0 warmup_obs
o65865 0.0 0.0 warmup_obs
o65866 0.0 0.0 warmup_obs
o65867 0.0 0.0 warmup_obs
o65868 0.0 0.0 warmup_obs
o65869 0.0 0.0 warmup_obs
o65870 0.0 0.0 warmup_obs
o65871 0.0 0.0 warmup_obs
o65872 0.0 0.0 warmup_obs
o65873 0.0 0.0 warmup_obs
o65874 0.0 0.0 warmup_obs
o65875 0.0 0.0 warmup_obs
o65876 0.0 0.0 warmup_obs
o65877 0.0 0.0 warmup_obs
o65878 0.0 0.0 warmup_obs
o65879 0.0 0.0 warmup_obs
o65880 0.0 0.0 warmup_obs
o65881 0.0 0.0 warmup_obs
o65882 0.0 0.0 warmup_obs
o65883 0.0 0.0 warmup_obs
o65884 0.0 0.0 warmup_obs
o65885 0.0 0.0 warmup_obs
o65886 0.0 0.0 warmup_obs
o65887 0.0 0.0 warmup_obs
o65888 0.0 0.0 warmup_obs
o65889 0.0 0.0 warmup_obs
o65890 0.0 0.0 warmup_obs
o65891 0.0 0.0 warmup_obs
o65892 0.0 0.0 warmup_obs
o65893 0.0 0.0 warmup_obs
o65894 0.0 0.0 warmup_obs
o65895 0.0 0.0 warmup_obs
o65896 0.0 0.0 warmup_obs
o65897 0.0 0.0 warmup_obs
o65898 0.0 0.0 warmup_obs
o65899 0.0 0.0 warmup_obs
o65900 0.0 0.0 warmup_obs
o65901 0.0 0.0 warmup_obs
o65902 0.0 0.0 warmup_obs
o65903 0.0 0.0 warmup_obs
o65904 0.0 0.0 warmup_obs
o65905 0.0 0.0 warmup_obs
o65906 0.0 0.0 warmup_obs
o65907 0.0 0.0 warmup_obs
o65908 0.0 0.0 warmup_obs
o65909 0.0 0.0 warmup_obs
o65910 0.0 0.0 warmup_obs
o65911 0.0 0.0 warmup_obs
o65912 0.0 0.0 warmup_obs
o65913 0.0 0.0 warmup_obs
o65914 0.0 0.0 warmup_obs
o65915 0.0 0.0 warmup_obs
o65916 0.0 0.0 warmup_obs
o65917 0.0 0.0 warmup_obs
o65918 0.0 0.0 warmup_obs
o65919 0.0 0.0 warmup_obs
o65920 0.0 0.0 warmup_obs
o65921 0.0 0.0 warmup_obs
o65922 0.0 0.0 warmup_obs
o65923 0.0 0.0 warmup_obs
o65924 0.0 0.0 warmup_obs
o65925 0.0 0.0 warmup_obs
o65926 0.0 0.0 warmup_obs
o65927 0.0 0.0 warmup_obs
o65928 0.0 0.0 warmup_obs
o65929 0.0 0.0 warmup_obs
o65930 0.0 0.0 warmup_obs
o65931 0.0 0.0 warmup_obs
o65932 0.0 0.0 warmup_obs
o65933 0.0 0.0 warmup_obs
o65934 0.0 0.0 warmup_obs
o65935 0.0 0.0 warmup_obs
o65936 0.0 0.0 warmup_obs
o65937 0.0 0.0 warmup_obs
o65938 0.0 0.0 warmup_obs
o65939 0.0 0.0 warmup_obs
o65940 0.0 0.0 warmup_obs
o65941 0.0 0.0 warmup_obs
o65942 0.0 0.0 warmup_obs
o65943 0.0 0.0 warmup_obs
o65944 0.0 0.0 warmup_obs
o65945 0.0 0.0 warmup_obs
o65946 0.0 0.0 warmup_obs
o65947 0.0 0.0 warmup_obs
o65948 0.0 0.0 warmup_obs
o65949 0.0 0.0 warmup_obs
o65950 0.0 0.0 warmup_obs
o65951 0.0 0.0 warmup_obs
o65952 0.0 0.0 warmup_obs
o65953 0.0 0.0 warmup_obs
o65954 0.0 0.0 warmup_obs
o65955 0.0 0.0 warmup_obs
o65956 0.0 0.0 warmup_obs
o65957 0.0 0.0 warmup_obs
o65958 0.0 0.0 warmup_obs
o65959 0.0 0.0 warmup_obs
o65960 0.0 0.0 warmup_obs
o65961 0.0 0.0 warmup_obs
o65962 0.0 0.0 warmup_obs
o65963 0.0 0.0 warmup_obs
o65964 0.0 0.0 warmup_obs
o65965 0.0 0.0 warmup_obs
o65966 0.0 0.0 warmup_obs
o65967 0.0 0.0 warmup_obs
o65968 0.0 0.0 warmup_obs
o65969 0.0 0.0 warmup_obs
o65970 0.0 0.0 warmup_obs
o65971 0.0 0.0 warmup_obs
o65972 0.0 0.0 warmup_obs
o65973 0.0 0.0 warmup_obs
o65974 0.0 0.0 warmup_obs
o65975 0.0 0.0 warmup_obs
o65976 0.0 0.0 warmup_obs
o65977 0.0 0.0 warmup_obs
o65978 0.0 0.0 warmup_obs
o65979 0.0 0.0 warmup_obs
o65980 0.0 0.0 warmup_obs
o65981 0.0 0.0 warmup_obs
o65982 0.0 0.0 warmup_obs
o65983 0.0 0.0 warmup_obs
o65984 0.0 0.0 warmup_obs
o65985 0.0 0.0 warmup_obs
o65986 0.0 0.0 warmup_obs
o65987 0.0 0.0 warmup_obs
o65988 0.0 0.0 warmup_obs
o65989 0.0 0.0 warmup_obs
o65990 0.0 0.0 warmup_obs
o65991 0.0 0.0 warmup_obs
o65992 0.0 0.0 warmup_obs
o65993 0.0 0.0 warmup_obs
o65994 0.0 0.0 warmup_obs
o65995 0.0 0.0 warmup_obs
o65996 0.0 0.0 warmup_obs
o65997 0.0 0.0 warmup_obs
o65998 0.0 0.0 warmup_obs
o65999 0.0 0.0 warmup_obs
o66000 0.0 0.0 warmup_obs
o66001 0.0 0.0 warmup_obs
o66002 0.0 0.0 warmup_obs
o66003 0.0 0.0 warmup_obs
o66004 0.0 0.0 warmup_obs
o66005 0.0 0.0 warmup_obs
o66006 0.0 0.0 warmup_obs
o66007 0.0 0.0 warmup_obs
o66008 0.0 0.0 warmup_obs
o66009 0.0 0.0 warmup_obs
o66010 0.0 0.0 warmup_obs
o66011 0.0 0.0 warmup_obs
o66012 0.0 0.0 warmup_obs
o66013 0.0 0.0 warmup_obs
o66014 0.0 0.0 warmup_obs
o66015 0.0 0.0 warmup_obs
o66016 0.0 0.0 warmup_obs
o66017 0.0 0.0 warmup_obs
o66018 0.0 0.0 warmup_obs
o66019 0.0 0.0 warmup_obs
o66020 0.0 0.0 warmup_obs
o66021 0.0 0.0 warmup_obs
o66022 0.0 0.0 warmup_obs
o66023 0.0 0.0 warmup_obs
o66024 0.0 0.0 warmup_obs
o66025 0.0 0.0 warmup_obs
o66026 0.0 0.0 warmup_obs
o66027 0.0 0.0 warmup_obs
o66028 0.0 0.0 warmup_obs
o66029 0.0 0.0 warmup_obs
o66030 0.0 0.0 warmup_obs
o66031 0.0 0.0 warmup_obs
o66032 0.0 0.0 warmup_obs
o66033 0.0 0.0 warmup_obs
o66034 0.0 0.0 warmup_obs
o66035 0.0 0.0 warmup_obs
o66036 0.0 0.0 warmup_obs
o66037 0.0 0.0 warmup_obs
o66038 0.0 0.0 warmup_obs
o66039 0.0 0.0 warmup_obs
o66040 0.0 0.0 warmup_obs
o66041 0.0 0.0 warmup_obs
o66042 0.0 0.0 warmup_obs
o66043 0.0 0.0 warmup_obs
o66044 0.0 0.0 warmup_obs
o66045 0.0 0.0 warmup_obs
o66046 0.0 0.0 warmup_obs
o66047 0.0 0.0 warmup_obs
o66048 0.0 0.0 warmup_obs
o66049 0.0 0.0 warmup_obs
o66050 0.0 0.0 warmup_obs
o66051 0.0 0.0 warmup_obs
o66052 0.0 0.0 warmup_obs
o66053 0.0 0.0 warmup_obs
o66054 0.0 0.0 warmup_obs
o66055 0.0 0.0 warmup_obs
o66056 0.0 0.0 warmup_obs
o66057 0.0 0.0 warmup_obs
o66058 0.0 0.0 warmup_obs
o66059 0.0 0.0 warmup_obs
o66060 0.0 0.0 warmup_obs
o66061 0.0 0.0 warmup_obs
o66062 0.0 0.0 warmup_obs
o66063 0.0 0.0 warmup_obs
o66064 0.0 0.0 warmup_obs
o66065 0.0 0.0 warmup_obs
o66066 0.0 0.0 warmup_obs
o66067 0.0 0.0 warmup_obs
o66068 0.0 0.0 warmup_obs
o66069 0.0 0.0 warmup_obs
o66070 0.0 0.0 warmup_obs
o66071 0.0 0.0 warmup_obs
o66072 0.0 0.0 warmup_obs
o66073 0.0 0.0 warmup_obs
o66074 0.0 0.0 warmup_obs
o66075 0.0 0.0 warmup_obs
o66076 0.0 0.0 warmup_obs
o66077 0.0 0.0 warmup_obs
o66078 0.0 0.0 warmup_obs
o66079 0.0 0.0 warmup_obs
o66080 0.0 0.0 warmup_obs
o66081 0.0 0.0 warmup_obs
o66082 0.0 0.0 warmup_obs
o66083 0.0 0.0 warmup_obs
o66084 0.0 0.0 warmup_obs
o66085 0.0 0.0 warmup_obs
o66086 0.0 0.0 warmup_obs
o66087 0.0 0.0 warmup_obs
o66088 0.0 0.0 warmup_obs
o66089 0.0 0.0 warmup_obs
o66090 0.0 0.0 warmup_obs
o66091 0.0 0.0 warmup_obs
o66092 0.0 0.0 warmup_obs
o66093 0.0 0.0 warmup_obs
o66094 0.0 0.0 warmup_obs
o66095 0.0 0.0 warmup_obs
o66096 0.0 0.0 warmup_obs
o66097 0.0 0.0 warmup_obs
o66098 0.0 0.0 warmup_obs
o66099 0.0 0.0 warmup_obs
o66100 0.0 0.0 warmup_obs
o66101 0.0 0.0 warmup_obs
o66102 0.0 0.0 warmup_obs
o66103 0.0 0.0 warmup_obs
o66104 0.0 0.0 warmup_obs
o66105 0.0 0.0 warmup_obs
o66106 0.0 0.0 warmup_obs
o66107 0.0 0.0 warmup_obs
o66108 0.0 0.0 warmup_obs
o66109 0.0 0.0 warmup_obs
o66110 0.0 0.0 warmup_obs
o66111 0.0 0.0 warmup_obs
o66112 0.0 0.0 warmup_obs
o66113 0.0 0.0 warmup_obs
o66114 0.0 0.0 warmup_obs
o66115 0.0 0.0 warmup_obs
o66116 0.0 0.0 warmup_obs
o66117 0.0 0.0 warmup_obs
o66118 0.0 0.0 warmup_obs
o66119 0.0 0.0 warmup_obs
o66120 0.0 0.0 warmup_obs
o66121 0.85 0.32562499999999994 calib_obs
o66122 0.85 0.32562499999999994 calib_obs
o66123 0.8 0.32562499999999994 calib_obs
o66124 0.8 0.32562499999999994 calib_obs
o66125 0.8 0.32562499999999994 calib_obs
o66126 0.8 0.32562499999999994 calib_obs
o66127 0.8 0.32562499999999994 calib_obs
o66128 0.8 0.32562499999999994 calib_obs
o66129 0.8 0.32562499999999994 calib_obs
o66130 0.8 0.32562499999999994 calib_obs
o66131 0.75 0.32562499999999994 calib_obs
o66132 0.8 0.32562499999999994 calib_obs
o66133 0.8 0.32562499999999994 calib_obs
o66134 0.8 0.32562499999999994 calib_obs
o66135 0.8 0.32562499999999994 calib_obs
o66136 0.8 0.32562499999999994 calib_obs
o66137 0.75 0.32562499999999994 calib_obs
o66138 0.75 0.32562499999999994 calib_obs
o66139 0.75 0.32562499999999994 calib_obs
o66140 0.75 0.32562499999999994 calib_obs
o66141 0.75 0.32562499999999994 calib_obs
o66142 0.7 0.32562499999999994 calib_obs
o66143 0.7 0.32562499999999994 calib_obs
o66144 0.7 0.32562499999999994 calib_obs
o66145 0.7 0.32562499999999994 calib_obs
o66146 0.7 0.32562499999999994 calib_obs
o66147 0.7 0.32562499999999994 calib_obs
o66148 0.7 0.32562499999999994 calib_obs
o66149 0.7 0.32562499999999994 calib_obs
o66150 0.7 0.32562499999999994 calib_obs
o66151 0.7 0.32562499999999994 calib_obs
o66152 0.7 0.32562499999999994 calib_obs
o66153 0.7 0.32562499999999994 calib_obs
o66154 0.67 0.32562499999999994 calib_obs
o66155 0.67 0.32562499999999994 calib_obs
o66156 0.67 0.32562499999999994 calib_obs
o66157 0.67 0.32562499999999994 calib_obs
o66158 0.67 0.32562499999999994 calib_obs
o66159 0.67 0.32562499999999994 calib_obs
o66160 0.67 0.32562499999999994 calib_obs
o66161 0.67 0.32562499999999994 calib_obs
o66162 0.64 0.32562499999999994 calib_obs
o66163 0.64 0.32562499999999994 calib_obs
o66164 0.64 0.32562499999999994 calib_obs
o66165 0.64 0.32562499999999994 calib_obs
o66166 0.64 0.32562499999999994 calib_obs
o66167 0.64 0.32562499999999994 calib_obs
o66168 0.64 0.32562499999999994 calib_obs
o66169 0.64 0.32562499999999994 calib_obs
o66170 0.64 0.32562499999999994 calib_obs
o66171 0.64 0.32562499999999994 calib_obs
o66172 0.67 0.32562499999999994 calib_obs
o66173 0.67 0.32562499999999994 calib_obs
o66174 0.7 0.32562499999999994 calib_obs
o66175 0.7 0.32562499999999994 calib_obs
o66176 0.67 0.32562499999999994 calib_obs
o66177 0.67 0.32562499999999994 calib_obs
o66178 0.67 0.32562499999999994 calib_obs
o66179 0.67 0.32562499999999994 calib_obs
o66180 0.7 0.32562499999999994 calib_obs
o66181 0.8 0.32562499999999994 calib_obs
o66182 0.85 0.32562499999999994 calib_obs
o66183 0.85 0.32562499999999994 calib_obs
o66184 0.8 0.32562499999999994 calib_obs
o66185 0.8 0.32562499999999994 calib_obs
o66186 0.8 0.32562499999999994 calib_obs
o66187 0.8 0.32562499999999994 calib_obs
o66188 0.8 0.32562499999999994 calib_obs
o66189 0.8 0.32562499999999994 calib_obs
o66190 0.8 0.32562499999999994 calib_obs
o66191 0.8 0.32562499999999994 calib_obs
o66192 0.75 0.32562499999999994 calib_obs
o66193 0.75 0.32562499999999994 calib_obs
o66194 0.85 0.32562499999999994 calib_obs
o66195 0.85 0.32562499999999994 calib_obs
o66196 0.85 0.32562499999999994 calib_obs
o66197 0.9 0.32562499999999994 calib_obs
o66198 0.9 0.32562499999999994 calib_obs
o66199 0.85 0.32562499999999994 calib_obs
o66200 0.85 0.32562499999999994 calib_obs
o66201 0.95 0.32562499999999994 calib_obs
o66202 1.0 0.32562499999999994 calib_obs
o66203 0.95 0.32562499999999994 calib_obs
o66204 0.95 0.32562499999999994 calib_obs
o66205 1.0 0.32562499999999994 calib_obs
o66206 0.95 0.32562499999999994 calib_obs
o66207 0.95 0.32562499999999994 calib_obs
o66208 0.95 0.32562499999999994 calib_obs
o66209 0.9 0.32562499999999994 calib_obs
o66210 0.9 0.32562499999999994 calib_obs
o66211 0.9 0.32562499999999994 calib_obs
o66212 0.9 0.32562499999999994 calib_obs
o66213 0.95 0.32562499999999994 calib_obs
o66214 0.95 0.32562499999999994 calib_obs
o66215 0.95 0.32562499999999994 calib_obs
o66216 0.95 0.32562499999999994 calib_obs
o66217 0.95 0.32562499999999994 calib_obs
o66218 0.95 0.32562499999999994 calib_obs
o66219 0.95 0.32562499999999994 calib_obs
o66220 0.95 0.32562499999999994 calib_obs
o66221 0.95 0.32562499999999994 calib_obs
o66222 0.8 0.32562499999999994 calib_obs
o66223 0.75 0.32562499999999994 calib_obs
o66224 0.75 0.32562499999999994 calib_obs
o66225 0.75 0.32562499999999994 calib_obs
o66226 0.75 0.32562499999999994 calib_obs
o66227 0.75 0.32562499999999994 calib_obs
o66228 0.8 0.32562499999999994 calib_obs
o66229 0.8 0.32562499999999994 calib_obs
o66230 0.8 0.32562499999999994 calib_obs
o66231 0.8 0.32562499999999994 calib_obs
o66232 0.8 0.32562499999999994 calib_obs
o66233 0.82 0.32562499999999994 calib_obs
o66234 0.81 0.32562499999999994 calib_obs
o66235 0.78 0.32562499999999994 calib_obs
o66236 0.8 0.32562499999999994 calib_obs
o66237 0.78 0.32562499999999994 calib_obs
o66238 0.78 0.32562499999999994 calib_obs
o66239 0.75 0.32562499999999994 calib_obs
o66240 0.82 0.32562499999999994 calib_obs
o66241 0.81 0.32562499999999994 calib_obs
o66242 0.79 0.32562499999999994 calib_obs
o66243 0.77 0.32562499999999994 calib_obs
o66244 0.77 0.32562499999999994 calib_obs
o66245 0.77 0.32562499999999994 calib_obs
o66246 0.74 0.32562499999999994 calib_obs
o66247 0.74 0.32562499999999994 calib_obs
o66248 0.73 0.32562499999999994 calib_obs
o66249 0.71 0.32562499999999994 calib_obs
o66250 0.69 0.32562499999999994 calib_obs
o66251 0.69 0.32562499999999994 calib_obs
o66252 0.68 0.32562499999999994 calib_obs
o66253 0.68 0.32562499999999994 calib_obs
o66254 0.66 0.32562499999999994 calib_obs
o66255 0.65 0.32562499999999994 calib_obs
o66256 0.66 0.32562499999999994 calib_obs
o66257 0.65 0.32562499999999994 calib_obs
o66258 0.65 0.32562499999999994 calib_obs
o66259 0.66 0.32562499999999994 calib_obs
o66260 0.65 0.32562499999999994 calib_obs
o66261 0.65 0.32562499999999994 calib_obs
o66262 0.63 0.32562499999999994 calib_obs
o66263 0.59 0.32562499999999994 calib_obs
o66264 0.57 0.32562499999999994 calib_obs
o66265 0.62 0.32562499999999994 calib_obs
o66266 0.49 0.32562499999999994 calib_obs
o66267 0.2 0.32562499999999994 calib_obs
o66268 0.16 0.32562499999999994 calib_obs
o66269 0.14 0.32562499999999994 calib_obs
o66270 0.13 0.32562499999999994 calib_obs
o66271 0.14 0.32562499999999994 calib_obs
o66272 0.14 0.32562499999999994 calib_obs
o66273 0.13 0.32562499999999994 calib_obs
o66274 0.13 0.32562499999999994 calib_obs
o66275 0.13 0.32562499999999994 calib_obs
o66276 0.13 0.32562499999999994 calib_obs
o66277 0.14 0.32562499999999994 calib_obs
o66278 0.14 0.32562499999999994 calib_obs
o66279 0.17 0.32562499999999994 calib_obs
o66280 0.27 0.32562499999999994 calib_obs
o66281 0.23 0.32562499999999994 calib_obs
o66282 0.23 0.32562499999999994 calib_obs
o66283 0.29 0.32562499999999994 calib_obs
o66284 0.37 0.32562499999999994 calib_obs
o66285 0.36 0.32562499999999994 calib_obs
o66286 0.36 0.32562499999999994 calib_obs
o66287 0.35 0.32562499999999994 calib_obs
o66288 0.34 0.32562499999999994 calib_obs
o66289 0.33 0.32562499999999994 calib_obs
o66290 0.3 0.32562499999999994 calib_obs
o66291 0.3 0.32562499999999994 calib_obs
o66292 0.33 0.32562499999999994 calib_obs
o66293 0.31 0.32562499999999994 calib_obs
o66294 0.27 0.32562499999999994 calib_obs
o66295 0.25 0.32562499999999994 calib_obs
o66296 0.28 0.32562499999999994 calib_obs
o66297 0.26 0.32562499999999994 calib_obs
o66298 0.27 0.32562499999999994 calib_obs
o66299 0.24 0.32562499999999994 calib_obs
o66300 0.19 0.32562499999999994 calib_obs
o66301 0.15 0.32562499999999994 calib_obs
o66302 0.14 0.32562499999999994 calib_obs
o66303 0.13 0.32562499999999994 calib_obs
o66304 0.14 0.32562499999999994 calib_obs
o66305 0.14 0.32562499999999994 calib_obs
o66306 0.14 0.32562499999999994 calib_obs
o66307 0.13 0.32562499999999994 calib_obs
o66308 0.13 0.32562499999999994 calib_obs
o66309 0.12 0.32562499999999994 calib_obs
o66310 0.12 0.32562499999999994 calib_obs
o66311 0.12 0.32562499999999994 calib_obs
o66312 0.11 0.32562499999999994 calib_obs
o66313 0.12 0.32562499999999994 calib_obs
o66314 0.12 0.32562499999999994 calib_obs
o66315 0.12 0.32562499999999994 calib_obs
o66316 0.11 0.32562499999999994 calib_obs
o66317 0.1 0.32562499999999994 calib_obs
o66318 0.1 0.32562499999999994 calib_obs
o66319 0.1 0.32562499999999994 calib_obs
o66320 0.1 0.32562499999999994 calib_obs
o66321 0.09 0.32562499999999994 calib_obs
o66322 0.09 0.32562499999999994 calib_obs
o66323 0.09 0.32562499999999994 calib_obs
o66324 0.09 0.32562499999999994 calib_obs
o66325 0.08 0.32562499999999994 calib_obs
o66326 0.08 0.32562499999999994 calib_obs
o66327 0.08 0.32562499999999994 calib_obs
o66328 0.08 0.32562499999999994 calib_obs
o66329 0.08 0.32562499999999994 calib_obs
o66330 0.08 0.32562499999999994 calib_obs
o66331 0.07 0.32562499999999994 calib_obs
o66332 0.07 0.32562499999999994 calib_obs
o66333 0.07 0.32562499999999994 calib_obs
o66334 0.08 0.32562499999999994 calib_obs
o66335 0.09 0.32562499999999994 calib_obs
o66336 0.11 0.32562499999999994 calib_obs
o66337 0.12 0.32562499999999994 calib_obs
o66338 0.13 0.32562499999999994 calib_obs
o66339 0.13 0.32562499999999994 calib_obs
o66340 0.14 0.32562499999999994 calib_obs
o66341 0.13 0.32562499999999994 calib_obs
o66342 0.14 0.32562499999999994 calib_obs
o66343 0.13 0.32562499999999994 calib_obs
o66344 0.13 0.32562499999999994 calib_obs
o66345 0.15 0.32562499999999994 calib_obs
o66346 0.14 0.32562499999999994 calib_obs
o66347 0.13 0.32562499999999994 calib_obs
o66348 0.12 0.32562499999999994 calib_obs
o66349 0.12 0.32562499999999994 calib_obs
o66350 0.13 0.32562499999999994 calib_obs
o66351 0.13 0.32562499999999994 calib_obs
o66352 0.13 0.32562499999999994 calib_obs
o66353 0.12 0.32562499999999994 calib_obs
o66354 0.12 0.32562499999999994 calib_obs
o66355 0.11 0.32562499999999994 calib_obs
o66356 0.1 0.32562499999999994 calib_obs
o66357 0.1 0.32562499999999994 calib_obs
o66358 0.1 0.32562499999999994 calib_obs
o66359 0.09 0.32562499999999994 calib_obs
o66360 0.09 0.32562499999999994 calib_obs
o66361 0.09 0.32562499999999994 calib_obs
o66362 0.09 0.32562499999999994 calib_obs
o66363 0.09 0.32562499999999994 calib_obs
o66364 0.1 0.32562499999999994 calib_obs
o66365 0.09 0.32562499999999994 calib_obs
o66366 0.09 0.32562499999999994 calib_obs
o66367 0.08 0.32562499999999994 calib_obs
o66368 0.08 0.32562499999999994 calib_obs
o66369 0.07 0.32562499999999994 calib_obs
o66370 0.07 0.32562499999999994 calib_obs
o66371 0.07 0.32562499999999994 calib_obs
o66372 0.08 0.32562499999999994 calib_obs
o66373 0.09 0.32562499999999994 calib_obs
o66374 0.1 0.32562499999999994 calib_obs
o66375 0.14 0.32562499999999994 calib_obs